MODEL 1
REMARK VINA RESULT:      -8.8      0.000      0.000
REMARK  9 active torsions:
REMARK  status: ('A' for Active; 'I' for Inactive)
REMARK    1  A    between atoms: O_3  and  C_17 
REMARK    2  A    between atoms: O_4  and  C_18 
REMARK    3  A    between atoms: O_5  and  C_19 
REMARK    4  A    between atoms: O_7  and  C_32 
REMARK    5  A    between atoms: O_9  and  C_36 
REMARK    6  A    between atoms: O_10  and  C_40 
REMARK    7  A    between atoms: C_11  and  C_13 
REMARK    8  A    between atoms: C_15  and  C_20 
REMARK    9  A    between atoms: C_22  and  C_29 
ROOT
HETATM    1  O   UNN     0      -9.300  13.378  66.529  0.00  0.00    -0.308 OA
HETATM    2  O   UNN     0     -10.501  17.130  65.490  0.00  0.00    -0.287 OA
HETATM    3  C   UNN     0     -10.755  12.394  64.951  0.00  0.00     0.045 A 
HETATM    4  C   UNN     0     -10.245  13.547  65.550  0.00  0.00     0.107 A 
HETATM    5  C   UNN     0     -10.699  14.800  65.144  0.00  0.00     0.082 A 
HETATM    6  C   UNN     0     -11.719  12.501  63.949  0.00  0.00     0.082 A 
HETATM    7  C   UNN     0     -11.664  14.913  64.141  0.00  0.00     0.085 A 
HETATM    8  C   UNN     0     -12.172  13.757  63.544  0.00  0.00     0.075 A 
HETATM    9  C   UNN     0      -8.770  14.507  67.137  0.00  0.00     0.090 A 
HETATM   10  C   UNN     0     -10.146  16.000  65.793  0.00  0.00     0.190 A 
HETATM   11  C   UNN     0      -9.130  15.765  66.840  0.00  0.00     0.094 A 
ENDROOT
BRANCH   3  12
HETATM   12  C   UNN     0     -10.291  11.081  65.365  0.00  0.00     0.014 A 
HETATM   13  C   UNN     0     -10.614  10.621  66.641  0.00  0.00     0.029 A 
HETATM   14  C   UNN     0     -10.180   9.363  67.056  0.00  0.00    -0.001 A 
HETATM   15  C   UNN     0      -9.425   8.566  66.195  0.00  0.00     0.017 A 
HETATM   16  C   UNN     0      -9.105   9.028  64.919  0.00  0.00     0.038 A 
HETATM   17  C   UNN     0      -9.538  10.287  64.503  0.00  0.00     0.076 A 
BRANCH  14  18
HETATM   18  C   UNN     0     -10.519   8.872  68.406  0.00  0.00     0.090 A 
HETATM   19  O   UNN     0     -10.184   7.544  68.623  0.00  0.00    -0.309 OA
HETATM   20  C   UNN     0     -10.455   6.993  69.850  0.00  0.00     0.095 A 
HETATM   21  C   UNN     0     -11.042   7.712  70.889  0.00  0.00     0.081 A 
HETATM   22  C   UNN     0     -10.113   5.653  70.036  0.00  0.00     0.075 A 
HETATM   23  C   UNN     0     -11.390   9.124  70.667  0.00  0.00     0.190 A 
HETATM   24  C   UNN     0     -11.293   7.100  72.119  0.00  0.00     0.085 A 
HETATM   25  O   UNN     0     -11.904   9.816  71.534  0.00  0.00    -0.287 OA
HETATM   26  C   UNN     0     -11.081   9.669  69.328  0.00  0.00     0.094 A 
HETATM   27  C   UNN     0     -10.952   5.759  72.302  0.00  0.00     0.074 A 
HETATM   28  C   UNN     0     -10.363   5.037  71.262  0.00  0.00     0.071 A 
BRANCH  24  29
HETATM   29  O   UNN     0     -11.865   7.761  73.165  0.00  0.00    -0.360 OA
HETATM   30  H   UNN     0     -12.070   8.676  72.918  0.00  0.00     0.217 HD
ENDBRANCH  24  29
BRANCH  28  31
HETATM   31  O   UNN     0     -10.031   3.730  71.447  0.00  0.00    -0.361 OA
HETATM   32  H   UNN     0      -9.095   3.676  71.706  0.00  0.00     0.217 HD
ENDBRANCH  28  31
ENDBRANCH  14  18
BRANCH  17  33
HETATM   33  O   UNN     0      -9.211  10.714  63.249  0.00  0.00    -0.360 OA
HETATM   34  H   UNN     0      -8.254  10.880  63.209  0.00  0.00     0.217 HD
ENDBRANCH  17  33
ENDBRANCH   3  12
BRANCH   6  35
HETATM   35  O   UNN     0     -12.239  11.395  63.345  0.00  0.00    -0.360 OA
HETATM   36  H   UNN     0     -11.760  10.606  63.652  0.00  0.00     0.217 HD
ENDBRANCH   6  35
BRANCH   9  37
HETATM   37  C   UNN     0      -7.768  14.210  68.180  0.00  0.00    -0.002 A 
HETATM   38  C   UNN     0      -7.303  15.230  69.015  0.00  0.00     0.017 A 
HETATM   39  C   UNN     0      -6.357  14.951  70.002  0.00  0.00     0.037 A 
HETATM   40  C   UNN     0      -5.871  13.651  70.155  0.00  0.00     0.065 A 
HETATM   41  C   UNN     0      -6.333  12.632  69.322  0.00  0.00     0.037 A 
HETATM   42  C   UNN     0      -7.279  12.911  68.336  0.00  0.00     0.017 A 
BRANCH  40  43
HETATM   43  O   UNN     0      -4.948  13.379  71.117  0.00  0.00    -0.361 OA
HETATM   44  H   UNN     0      -5.199  13.842  71.935  0.00  0.00     0.217 HD
ENDBRANCH  40  43
ENDBRANCH   9  37
BRANCH   7  45
HETATM   45  O   UNN     0     -12.138  16.114  63.709  0.00  0.00    -0.360 OA
HETATM   46  H   UNN     0     -13.077  16.209  63.929  0.00  0.00     0.217 HD
ENDBRANCH   7  45
TORSDOF 9
ENDMDL
MODEL 2
REMARK VINA RESULT:      -8.6      3.981      6.781
REMARK  9 active torsions:
REMARK  status: ('A' for Active; 'I' for Inactive)
REMARK    1  A    between atoms: O_3  and  C_17 
REMARK    2  A    between atoms: O_4  and  C_18 
REMARK    3  A    between atoms: O_5  and  C_19 
REMARK    4  A    between atoms: O_7  and  C_32 
REMARK    5  A    between atoms: O_9  and  C_36 
REMARK    6  A    between atoms: O_10  and  C_40 
REMARK    7  A    between atoms: C_11  and  C_13 
REMARK    8  A    between atoms: C_15  and  C_20 
REMARK    9  A    between atoms: C_22  and  C_29 
ROOT
HETATM    1  O   UNN     0      -6.341  16.826  69.393  0.00  0.00    -0.308 OA
HETATM    2  O   UNN     0      -3.601  19.491  70.805  0.00  0.00    -0.287 OA
HETATM    3  C   UNN     0      -7.456  18.508  68.168  0.00  0.00     0.045 A 
HETATM    4  C   UNN     0      -6.417  18.146  69.026  0.00  0.00     0.107 A 
HETATM    5  C   UNN     0      -5.513  19.108  69.470  0.00  0.00     0.082 A 
HETATM    6  C   UNN     0      -7.587  19.835  67.759  0.00  0.00     0.082 A 
HETATM    7  C   UNN     0      -5.639  20.439  69.062  0.00  0.00     0.085 A 
HETATM    8  C   UNN     0      -6.680  20.798  68.204  0.00  0.00     0.075 A 
HETATM    9  C   UNN     0      -5.314  16.435  70.240  0.00  0.00     0.090 A 
HETATM   10  C   UNN     0      -4.427  18.699  70.374  0.00  0.00     0.190 A 
HETATM   11  C   UNN     0      -4.388  17.267  70.739  0.00  0.00     0.094 A 
ENDROOT
BRANCH   3  12
HETATM   12  C   UNN     0      -8.407  17.515  67.698  0.00  0.00     0.014 A 
HETATM   13  C   UNN     0      -9.240  16.887  68.622  0.00  0.00     0.029 A 
HETATM   14  C   UNN     0     -10.160  15.932  68.191  0.00  0.00    -0.001 A 
HETATM   15  C   UNN     0     -10.247  15.608  66.837  0.00  0.00     0.017 A 
HETATM   16  C   UNN     0      -9.412  16.239  65.915  0.00  0.00     0.038 A 
HETATM   17  C   UNN     0      -8.491  17.194  66.346  0.00  0.00     0.076 A 
BRANCH  14  18
HETATM   18  C   UNN     0     -11.045  15.264  69.166  0.00  0.00     0.090 A 
HETATM   19  O   UNN     0     -10.998  13.879  69.111  0.00  0.00    -0.309 OA
HETATM   20  C   UNN     0     -11.782  13.164  69.981  0.00  0.00     0.095 A 
HETATM   21  C   UNN     0     -12.614  13.768  70.922  0.00  0.00     0.081 A 
HETATM   22  C   UNN     0     -11.719  11.772  69.898  0.00  0.00     0.075 A 
HETATM   23  C   UNN     0     -12.659  15.237  70.989  0.00  0.00     0.190 A 
HETATM   24  C   UNN     0     -13.389  12.990  71.784  0.00  0.00     0.085 A 
HETATM   25  O   UNN     0     -13.363  15.833  71.791  0.00  0.00    -0.287 OA
HETATM   26  C   UNN     0     -11.800  15.961  70.030  0.00  0.00     0.094 A 
HETATM   27  C   UNN     0     -13.325  11.598  71.698  0.00  0.00     0.074 A 
HETATM   28  C   UNN     0     -12.492  10.991  70.757  0.00  0.00     0.071 A 
BRANCH  24  29
HETATM   29  O   UNN     0     -14.218  13.533  72.719  0.00  0.00    -0.360 OA
HETATM   30  H   UNN     0     -14.834  14.157  72.307  0.00  0.00     0.217 HD
ENDBRANCH  24  29
BRANCH  28  31
HETATM   31  O   UNN     0     -12.433   9.633  70.678  0.00  0.00    -0.361 OA
HETATM   32  H   UNN     0     -11.920   9.385  69.889  0.00  0.00     0.217 HD
ENDBRANCH  28  31
ENDBRANCH  14  18
BRANCH  17  33
HETATM   33  O   UNN     0      -7.688  17.795  65.422  0.00  0.00    -0.360 OA
HETATM   34  H   UNN     0      -7.939  18.731  65.342  0.00  0.00     0.217 HD
ENDBRANCH  17  33
ENDBRANCH   3  12
BRANCH   6  35
HETATM   35  O   UNN     0      -8.592  20.224  66.923  0.00  0.00    -0.360 OA
HETATM   36  H   UNN     0      -8.851  19.473  66.362  0.00  0.00     0.217 HD
ENDBRANCH   6  35
BRANCH   9  37
HETATM   37  C   UNN     0      -5.330  14.997  70.575  0.00  0.00    -0.002 A 
HETATM   38  C   UNN     0      -5.888  14.076  69.685  0.00  0.00     0.017 A 
HETATM   39  C   UNN     0      -5.903  12.717  70.001  0.00  0.00     0.037 A 
HETATM   40  C   UNN     0      -5.359  12.275  71.208  0.00  0.00     0.065 A 
HETATM   41  C   UNN     0      -4.802  13.193  72.099  0.00  0.00     0.037 A 
HETATM   42  C   UNN     0      -4.788  14.552  71.783  0.00  0.00     0.017 A 
BRANCH  40  43
HETATM   43  O   UNN     0      -5.374  10.950  71.517  0.00  0.00    -0.361 OA
HETATM   44  H   UNN     0      -5.582  10.848  72.462  0.00  0.00     0.217 HD
ENDBRANCH  40  43
ENDBRANCH   9  37
BRANCH   7  45
HETATM   45  O   UNN     0      -4.780  21.415  69.467  0.00  0.00    -0.360 OA
HETATM   46  H   UNN     0      -4.064  21.527  68.823  0.00  0.00     0.217 HD
ENDBRANCH   7  45
TORSDOF 9
ENDMDL
MODEL 3
REMARK VINA RESULT:      -8.6      4.286      5.977
REMARK  9 active torsions:
REMARK  status: ('A' for Active; 'I' for Inactive)
REMARK    1  A    between atoms: O_3  and  C_17 
REMARK    2  A    between atoms: O_4  and  C_18 
REMARK    3  A    between atoms: O_5  and  C_19 
REMARK    4  A    between atoms: O_7  and  C_32 
REMARK    5  A    between atoms: O_9  and  C_36 
REMARK    6  A    between atoms: O_10  and  C_40 
REMARK    7  A    between atoms: C_11  and  C_13 
REMARK    8  A    between atoms: C_15  and  C_20 
REMARK    9  A    between atoms: C_22  and  C_29 
ROOT
HETATM    1  O   UNN     0     -11.561  12.324  69.690  0.00  0.00    -0.308 OA
HETATM    2  O   UNN     0     -11.515  14.203  66.075  0.00  0.00    -0.287 OA
HETATM    3  C   UNN     0     -10.958  10.263  68.710  0.00  0.00     0.045 A 
HETATM    4  C   UNN     0     -11.249  11.619  68.556  0.00  0.00     0.107 A 
HETATM    5  C   UNN     0     -11.212  12.199  67.290  0.00  0.00     0.082 A 
HETATM    6  C   UNN     0     -10.633   9.492  67.594  0.00  0.00     0.082 A 
HETATM    7  C   UNN     0     -10.887  11.431  66.169  0.00  0.00     0.085 A 
HETATM    8  C   UNN     0     -10.597  10.074  66.327  0.00  0.00     0.075 A 
HETATM    9  C   UNN     0     -11.848  13.676  69.568  0.00  0.00     0.090 A 
HETATM   10  C   UNN     0     -11.524  13.631  67.156  0.00  0.00     0.190 A 
HETATM   11  C   UNN     0     -11.853  14.346  68.406  0.00  0.00     0.094 A 
ENDROOT
BRANCH   3  12
HETATM   12  C   UNN     0     -10.994   9.644  70.025  0.00  0.00     0.014 A 
HETATM   13  C   UNN     0      -9.801   9.206  70.598  0.00  0.00     0.029 A 
HETATM   14  C   UNN     0      -9.815   8.612  71.859  0.00  0.00    -0.001 A 
HETATM   15  C   UNN     0     -11.019   8.458  72.546  0.00  0.00     0.017 A 
HETATM   16  C   UNN     0     -12.211   8.897  71.969  0.00  0.00     0.038 A 
HETATM   17  C   UNN     0     -12.198   9.492  70.707  0.00  0.00     0.076 A 
BRANCH  14  18
HETATM   18  C   UNN     0      -8.554   8.146  72.471  0.00  0.00     0.090 A 
HETATM   19  O   UNN     0      -8.347   8.613  73.760  0.00  0.00    -0.309 OA
HETATM   20  C   UNN     0      -7.205   8.233  74.418  0.00  0.00     0.095 A 
HETATM   21  C   UNN     0      -6.250   7.391  73.850  0.00  0.00     0.081 A 
HETATM   22  C   UNN     0      -7.021   8.725  75.711  0.00  0.00     0.075 A 
HETATM   23  C   UNN     0      -6.470   6.886  72.487  0.00  0.00     0.190 A 
HETATM   24  C   UNN     0      -5.106   7.036  74.568  0.00  0.00     0.085 A 
HETATM   25  O   UNN     0      -5.677   6.142  71.929  0.00  0.00    -0.287 OA
HETATM   26  C   UNN     0      -7.713   7.327  71.821  0.00  0.00     0.094 A 
HETATM   27  C   UNN     0      -4.924   7.530  75.860  0.00  0.00     0.074 A 
HETATM   28  C   UNN     0      -5.879   8.372  76.431  0.00  0.00     0.071 A 
BRANCH  24  29
HETATM   29  O   UNN     0      -4.144   6.217  74.057  0.00  0.00    -0.360 OA
HETATM   30  H   UNN     0      -4.543   5.527  73.505  0.00  0.00     0.217 HD
ENDBRANCH  24  29
BRANCH  28  31
HETATM   31  O   UNN     0      -5.697   8.850  77.692  0.00  0.00    -0.361 OA
HETATM   32  H   UNN     0      -6.093   9.738  77.754  0.00  0.00     0.217 HD
ENDBRANCH  28  31
ENDBRANCH  14  18
BRANCH  17  33
HETATM   33  O   UNN     0     -13.378   9.913  70.168  0.00  0.00    -0.360 OA
HETATM   34  H   UNN     0     -13.879   9.142  69.854  0.00  0.00     0.217 HD
ENDBRANCH  17  33
ENDBRANCH   3  12
BRANCH   6  35
HETATM   35  O   UNN     0     -10.346   8.164  67.709  0.00  0.00    -0.360 OA
HETATM   36  H   UNN     0     -11.003   7.649  67.210  0.00  0.00     0.217 HD
ENDBRANCH   6  35
BRANCH   9  37
HETATM   37  C   UNN     0     -12.177  14.336  70.848  0.00  0.00    -0.002 A 
HETATM   38  C   UNN     0     -11.623  15.581  71.156  0.00  0.00     0.017 A 
HETATM   39  C   UNN     0     -11.935  16.206  72.364  0.00  0.00     0.037 A 
HETATM   40  C   UNN     0     -12.800  15.588  73.268  0.00  0.00     0.065 A 
HETATM   41  C   UNN     0     -13.354  14.345  72.962  0.00  0.00     0.037 A 
HETATM   42  C   UNN     0     -13.043  13.720  71.754  0.00  0.00     0.017 A 
BRANCH  40  43
HETATM   43  O   UNN     0     -13.103  16.197  74.446  0.00  0.00    -0.361 OA
HETATM   44  H   UNN     0     -13.752  15.653  74.925  0.00  0.00     0.217 HD
ENDBRANCH  40  43
ENDBRANCH   9  37
BRANCH   7  45
HETATM   45  O   UNN     0     -10.836  11.952  64.912  0.00  0.00    -0.360 OA
HETATM   46  H   UNN     0     -11.096  11.287  64.257  0.00  0.00     0.217 HD
ENDBRANCH   7  45
TORSDOF 9
ENDMDL
MODEL 4
REMARK VINA RESULT:      -8.4      0.979      2.155
REMARK  9 active torsions:
REMARK  status: ('A' for Active; 'I' for Inactive)
REMARK    1  A    between atoms: O_3  and  C_17 
REMARK    2  A    between atoms: O_4  and  C_18 
REMARK    3  A    between atoms: O_5  and  C_19 
REMARK    4  A    between atoms: O_7  and  C_32 
REMARK    5  A    between atoms: O_9  and  C_36 
REMARK    6  A    between atoms: O_10  and  C_40 
REMARK    7  A    between atoms: C_11  and  C_13 
REMARK    8  A    between atoms: C_15  and  C_20 
REMARK    9  A    between atoms: C_22  and  C_29 
ROOT
HETATM    1  O   UNN     0      -9.131  13.482  66.287  0.00  0.00    -0.308 OA
HETATM    2  O   UNN     0     -10.665  17.177  65.515  0.00  0.00    -0.287 OA
HETATM    3  C   UNN     0     -10.595  12.468  64.737  0.00  0.00     0.045 A 
HETATM    4  C   UNN     0     -10.140  13.626  65.369  0.00  0.00     0.107 A 
HETATM    5  C   UNN     0     -10.708  14.859  65.056  0.00  0.00     0.082 A 
HETATM    6  C   UNN     0     -11.620  12.550  63.794  0.00  0.00     0.082 A 
HETATM    7  C   UNN     0     -11.734  14.946  64.111  0.00  0.00     0.085 A 
HETATM    8  C   UNN     0     -12.188  13.786  63.481  0.00  0.00     0.075 A 
HETATM    9  C   UNN     0      -8.654  14.617  66.926  0.00  0.00     0.090 A 
HETATM   10  C   UNN     0     -10.210  16.064  65.738  0.00  0.00     0.190 A 
HETATM   11  C   UNN     0      -9.122  15.857  66.716  0.00  0.00     0.094 A 
ENDROOT
BRANCH   3  12
HETATM   12  C   UNN     0     -10.013  11.176  65.055  0.00  0.00     0.014 A 
HETATM   13  C   UNN     0     -10.327  10.574  66.272  0.00  0.00     0.029 A 
HETATM   14  C   UNN     0      -9.780   9.333  66.595  0.00  0.00    -0.001 A 
HETATM   15  C   UNN     0      -8.920   8.695  65.700  0.00  0.00     0.017 A 
HETATM   16  C   UNN     0      -8.608   9.300  64.482  0.00  0.00     0.038 A 
HETATM   17  C   UNN     0      -9.156  10.542  64.159  0.00  0.00     0.076 A 
BRANCH  14  18
HETATM   18  C   UNN     0     -10.109   8.691  67.883  0.00  0.00     0.090 A 
HETATM   19  O   UNN     0     -10.979   9.428  68.673  0.00  0.00    -0.309 OA
HETATM   20  C   UNN     0     -11.350   8.915  69.890  0.00  0.00     0.095 A 
HETATM   21  C   UNN     0     -10.899   7.684  70.362  0.00  0.00     0.081 A 
HETATM   22  C   UNN     0     -12.221   9.682  70.666  0.00  0.00     0.075 A 
HETATM   23  C   UNN     0      -9.983   6.895  69.523  0.00  0.00     0.190 A 
HETATM   24  C   UNN     0     -11.311   7.210  71.609  0.00  0.00     0.085 A 
HETATM   25  O   UNN     0      -9.550   5.807  69.872  0.00  0.00    -0.287 OA
HETATM   26  C   UNN     0      -9.611   7.492  68.224  0.00  0.00     0.094 A 
HETATM   27  C   UNN     0     -12.181   7.980  72.383  0.00  0.00     0.074 A 
HETATM   28  C   UNN     0     -12.635   9.213  71.912  0.00  0.00     0.071 A 
BRANCH  24  29
HETATM   29  O   UNN     0     -10.898   6.014  72.114  0.00  0.00    -0.360 OA
HETATM   30  H   UNN     0     -11.181   5.918  73.036  0.00  0.00     0.217 HD
ENDBRANCH  24  29
BRANCH  28  31
HETATM   31  O   UNN     0     -13.484   9.958  72.670  0.00  0.00    -0.361 OA
HETATM   32  H   UNN     0     -14.244  10.226  72.124  0.00  0.00     0.217 HD
ENDBRANCH  28  31
ENDBRANCH  14  18
BRANCH  17  33
HETATM   33  O   UNN     0      -8.834  11.109  62.961  0.00  0.00    -0.360 OA
HETATM   34  H   UNN     0      -9.088  10.505  62.244  0.00  0.00     0.217 HD
ENDBRANCH  17  33
ENDBRANCH   3  12
BRANCH   6  35
HETATM   35  O   UNN     0     -12.089  11.438  63.159  0.00  0.00    -0.360 OA
HETATM   36  H   UNN     0     -11.805  10.646  63.647  0.00  0.00     0.217 HD
ENDBRANCH   6  35
BRANCH   9  37
HETATM   37  C   UNN     0      -7.575  14.348  67.897  0.00  0.00    -0.002 A 
HETATM   38  C   UNN     0      -6.759  13.224  67.744  0.00  0.00     0.017 A 
HETATM   39  C   UNN     0      -5.738  12.969  68.661  0.00  0.00     0.037 A 
HETATM   40  C   UNN     0      -5.531  13.837  69.734  0.00  0.00     0.065 A 
HETATM   41  C   UNN     0      -6.344  14.959  69.889  0.00  0.00     0.037 A 
HETATM   42  C   UNN     0      -7.365  15.214  68.972  0.00  0.00     0.017 A 
BRANCH  40  43
HETATM   43  O   UNN     0      -4.535  13.588  70.628  0.00  0.00    -0.361 OA
HETATM   44  H   UNN     0      -4.507  12.633  70.811  0.00  0.00     0.217 HD
ENDBRANCH  40  43
ENDBRANCH   9  37
BRANCH   7  45
HETATM   45  O   UNN     0     -12.319  16.128  63.770  0.00  0.00    -0.360 OA
HETATM   46  H   UNN     0     -13.172  16.228  64.220  0.00  0.00     0.217 HD
ENDBRANCH   7  45
TORSDOF 9
ENDMDL
MODEL 5
REMARK VINA RESULT:      -8.3      3.569      9.674
REMARK  9 active torsions:
REMARK  status: ('A' for Active; 'I' for Inactive)
REMARK    1  A    between atoms: O_3  and  C_17 
REMARK    2  A    between atoms: O_4  and  C_18 
REMARK    3  A    between atoms: O_5  and  C_19 
REMARK    4  A    between atoms: O_7  and  C_32 
REMARK    5  A    between atoms: O_9  and  C_36 
REMARK    6  A    between atoms: O_10  and  C_40 
REMARK    7  A    between atoms: C_11  and  C_13 
REMARK    8  A    between atoms: C_15  and  C_20 
REMARK    9  A    between atoms: C_22  and  C_29 
ROOT
HETATM    1  O   UNN     0     -10.912  12.076  68.005  0.00  0.00    -0.308 OA
HETATM    2  O   UNN     0     -12.366   9.916  71.139  0.00  0.00    -0.287 OA
HETATM    3  C   UNN     0     -11.694  14.098  68.939  0.00  0.00     0.045 A 
HETATM    4  C   UNN     0     -11.563  12.712  69.031  0.00  0.00     0.107 A 
HETATM    5  C   UNN     0     -12.082  12.035  70.133  0.00  0.00     0.082 A 
HETATM    6  C   UNN     0     -12.346  14.802  69.951  0.00  0.00     0.082 A 
HETATM    7  C   UNN     0     -12.737  12.736  71.150  0.00  0.00     0.085 A 
HETATM    8  C   UNN     0     -12.866  14.123  71.054  0.00  0.00     0.075 A 
HETATM    9  C   UNN     0     -10.761  10.698  68.073  0.00  0.00     0.090 A 
HETATM   10  C   UNN     0     -11.931  10.573  70.204  0.00  0.00     0.190 A 
HETATM   11  C   UNN     0     -11.222   9.936  69.076  0.00  0.00     0.094 A 
ENDROOT
BRANCH   3  12
HETATM   12  C   UNN     0     -11.158  14.816  67.796  0.00  0.00     0.014 A 
HETATM   13  C   UNN     0     -10.217  15.823  68.009  0.00  0.00     0.029 A 
HETATM   14  C   UNN     0      -9.690  16.522  66.925  0.00  0.00    -0.001 A 
HETATM   15  C   UNN     0     -10.103  16.214  65.628  0.00  0.00     0.017 A 
HETATM   16  C   UNN     0     -11.045  15.207  65.418  0.00  0.00     0.038 A 
HETATM   17  C   UNN     0     -11.573  14.507  66.503  0.00  0.00     0.076 A 
BRANCH  14  18
HETATM   18  C   UNN     0      -8.693  17.589  67.145  0.00  0.00     0.090 A 
HETATM   19  O   UNN     0      -8.064  18.020  65.988  0.00  0.00    -0.309 OA
HETATM   20  C   UNN     0      -7.122  19.013  66.086  0.00  0.00     0.095 A 
HETATM   21  C   UNN     0      -6.779  19.612  67.297  0.00  0.00     0.081 A 
HETATM   22  C   UNN     0      -6.501  19.422  64.905  0.00  0.00     0.075 A 
HETATM   23  C   UNN     0      -7.451  19.164  68.526  0.00  0.00     0.190 A 
HETATM   24  C   UNN     0      -5.814  20.620  67.338  0.00  0.00     0.085 A 
HETATM   25  O   UNN     0      -7.201  19.646  69.621  0.00  0.00    -0.287 OA
HETATM   26  C   UNN     0      -8.454  18.091  68.367  0.00  0.00     0.094 A 
HETATM   27  C   UNN     0      -5.193  21.026  66.155  0.00  0.00     0.074 A 
HETATM   28  C   UNN     0      -5.537  20.428  64.942  0.00  0.00     0.071 A 
BRANCH  24  29
HETATM   29  O   UNN     0      -5.444  21.236  68.495  0.00  0.00    -0.360 OA
HETATM   30  H   UNN     0      -4.753  21.894  68.325  0.00  0.00     0.217 HD
ENDBRANCH  24  29
BRANCH  28  31
HETATM   31  O   UNN     0      -4.929  20.828  63.792  0.00  0.00    -0.361 OA
HETATM   32  H   UNN     0      -4.926  20.087  63.161  0.00  0.00     0.217 HD
ENDBRANCH  28  31
ENDBRANCH  14  18
BRANCH  17  33
HETATM   33  O   UNN     0     -12.491  13.526  66.267  0.00  0.00    -0.360 OA
HETATM   34  H   UNN     0     -13.341  13.935  66.035  0.00  0.00     0.217 HD
ENDBRANCH  17  33
ENDBRANCH   3  12
BRANCH   6  35
HETATM   35  O   UNN     0     -12.493  16.156  69.892  0.00  0.00    -0.360 OA
HETATM   36  H   UNN     0     -11.623  16.578  69.999  0.00  0.00     0.217 HD
ENDBRANCH   6  35
BRANCH   9  37
HETATM   37  C   UNN     0     -10.052  10.116  66.916  0.00  0.00    -0.002 A 
HETATM   38  C   UNN     0      -9.510   8.831  67.000  0.00  0.00     0.017 A 
HETATM   39  C   UNN     0      -8.841   8.280  65.907  0.00  0.00     0.037 A 
HETATM   40  C   UNN     0      -8.712   9.012  64.726  0.00  0.00     0.065 A 
HETATM   41  C   UNN     0      -9.252  10.295  64.639  0.00  0.00     0.037 A 
HETATM   42  C   UNN     0      -9.921  10.846  65.732  0.00  0.00     0.017 A 
BRANCH  40  43
HETATM   43  O   UNN     0      -8.060   8.474  63.660  0.00  0.00    -0.361 OA
HETATM   44  H   UNN     0      -7.718   7.597  63.909  0.00  0.00     0.217 HD
ENDBRANCH  40  43
ENDBRANCH   9  37
BRANCH   7  45
HETATM   45  O   UNN     0     -13.259  12.120  72.246  0.00  0.00    -0.360 OA
HETATM   46  H   UNN     0     -14.215  12.000  72.146  0.00  0.00     0.217 HD
ENDBRANCH   7  45
TORSDOF 9
ENDMDL
MODEL 6
REMARK VINA RESULT:      -8.3     22.285     26.048
REMARK  9 active torsions:
REMARK  status: ('A' for Active; 'I' for Inactive)
REMARK    1  A    between atoms: O_3  and  C_17 
REMARK    2  A    between atoms: O_4  and  C_18 
REMARK    3  A    between atoms: O_5  and  C_19 
REMARK    4  A    between atoms: O_7  and  C_32 
REMARK    5  A    between atoms: O_9  and  C_36 
REMARK    6  A    between atoms: O_10  and  C_40 
REMARK    7  A    between atoms: C_11  and  C_13 
REMARK    8  A    between atoms: C_15  and  C_20 
REMARK    9  A    between atoms: C_22  and  C_29 
ROOT
HETATM    1  O   UNN     0     -13.965  34.379  53.433  0.00  0.00    -0.308 OA
HETATM    2  O   UNN     0     -15.630  37.890  54.658  0.00  0.00    -0.287 OA
HETATM    3  C   UNN     0     -15.661  33.120  54.487  0.00  0.00     0.045 A 
HETATM    4  C   UNN     0     -15.114  34.366  54.181  0.00  0.00     0.107 A 
HETATM    5  C   UNN     0     -15.737  35.529  54.630  0.00  0.00     0.082 A 
HETATM    6  C   UNN     0     -16.830  33.042  55.245  0.00  0.00     0.082 A 
HETATM    7  C   UNN     0     -16.908  35.457  55.389  0.00  0.00     0.085 A 
HETATM    8  C   UNN     0     -17.452  34.207  55.695  0.00  0.00     0.075 A 
HETATM    9  C   UNN     0     -13.402  35.605  53.107  0.00  0.00     0.090 A 
HETATM   10  C   UNN     0     -15.139  36.831  54.294  0.00  0.00     0.190 A 
HETATM   11  C   UNN     0     -13.903  36.790  53.486  0.00  0.00     0.094 A 
ENDROOT
BRANCH   3  12
HETATM   12  C   UNN     0     -15.021  31.900  54.026  0.00  0.00     0.014 A 
HETATM   13  C   UNN     0     -13.702  31.646  54.398  0.00  0.00     0.029 A 
HETATM   14  C   UNN     0     -13.071  30.480  53.968  0.00  0.00    -0.001 A 
HETATM   15  C   UNN     0     -13.760  29.569  53.167  0.00  0.00     0.017 A 
HETATM   16  C   UNN     0     -15.080  29.825  52.796  0.00  0.00     0.038 A 
HETATM   17  C   UNN     0     -15.712  30.992  53.227  0.00  0.00     0.076 A 
BRANCH  14  18
HETATM   18  C   UNN     0     -11.674  30.206  54.359  0.00  0.00     0.090 A 
HETATM   19  O   UNN     0     -11.349  30.649  55.632  0.00  0.00    -0.309 OA
HETATM   20  C   UNN     0     -10.073  30.439  56.092  0.00  0.00     0.095 A 
HETATM   21  C   UNN     0      -9.095  29.792  55.339  0.00  0.00     0.081 A 
HETATM   22  C   UNN     0      -9.774  30.901  57.374  0.00  0.00     0.075 A 
HETATM   23  C   UNN     0      -9.439  29.313  53.991  0.00  0.00     0.190 A 
HETATM   24  C   UNN     0      -7.813  29.604  55.858  0.00  0.00     0.085 A 
HETATM   25  O   UNN     0      -8.632  28.735  53.277  0.00  0.00    -0.287 OA
HETATM   26  C   UNN     0     -10.823  29.566  53.542  0.00  0.00     0.094 A 
HETATM   27  C   UNN     0      -7.516  30.068  57.140  0.00  0.00     0.074 A 
HETATM   28  C   UNN     0      -8.494  30.716  57.896  0.00  0.00     0.071 A 
BRANCH  24  29
HETATM   29  O   UNN     0      -6.823  28.978  55.161  0.00  0.00    -0.360 OA
HETATM   30  H   UNN     0      -5.952  29.254  55.486  0.00  0.00     0.217 HD
ENDBRANCH  24  29
BRANCH  28  31
HETATM   31  O   UNN     0      -8.199  31.166  59.146  0.00  0.00    -0.361 OA
HETATM   32  H   UNN     0      -7.327  31.599  59.128  0.00  0.00     0.217 HD
ENDBRANCH  28  31
ENDBRANCH  14  18
BRANCH  17  33
HETATM   33  O   UNN     0     -17.003  31.217  52.850  0.00  0.00    -0.360 OA
HETATM   34  H   UNN     0     -17.405  31.861  53.457  0.00  0.00     0.217 HD
ENDBRANCH  17  33
ENDBRANCH   3  12
BRANCH   6  35
HETATM   35  O   UNN     0     -17.389  31.840  55.564  0.00  0.00    -0.360 OA
HETATM   36  H   UNN     0     -17.859  31.489  54.788  0.00  0.00     0.217 HD
ENDBRANCH   6  35
BRANCH   9  37
HETATM   37  C   UNN     0     -12.166  35.502  52.307  0.00  0.00    -0.002 A 
HETATM   38  C   UNN     0     -11.263  36.568  52.274  0.00  0.00     0.017 A 
HETATM   39  C   UNN     0     -10.093  36.472  51.519  0.00  0.00     0.037 A 
HETATM   40  C   UNN     0      -9.823  35.310  50.795  0.00  0.00     0.065 A 
HETATM   41  C   UNN     0     -10.723  34.244  50.827  0.00  0.00     0.037 A 
HETATM   42  C   UNN     0     -11.892  34.341  51.582  0.00  0.00     0.017 A 
BRANCH  40  43
HETATM   43  O   UNN     0      -8.682  35.216  50.059  0.00  0.00    -0.361 OA
HETATM   44  H   UNN     0      -8.419  36.107  49.770  0.00  0.00     0.217 HD
ENDBRANCH  40  43
ENDBRANCH   9  37
BRANCH   7  45
HETATM   45  O   UNN     0     -17.555  36.563  55.849  0.00  0.00    -0.360 OA
HETATM   46  H   UNN     0     -17.001  37.351  55.741  0.00  0.00     0.217 HD
ENDBRANCH   7  45
TORSDOF 9
ENDMDL
MODEL 7
REMARK VINA RESULT:      -8.3     43.513     46.475
REMARK  9 active torsions:
REMARK  status: ('A' for Active; 'I' for Inactive)
REMARK    1  A    between atoms: O_3  and  C_17 
REMARK    2  A    between atoms: O_4  and  C_18 
REMARK    3  A    between atoms: O_5  and  C_19 
REMARK    4  A    between atoms: O_7  and  C_32 
REMARK    5  A    between atoms: O_9  and  C_36 
REMARK    6  A    between atoms: O_10  and  C_40 
REMARK    7  A    between atoms: C_11  and  C_13 
REMARK    8  A    between atoms: C_15  and  C_20 
REMARK    9  A    between atoms: C_22  and  C_29 
ROOT
HETATM    1  O   UNN     0     -38.303 -11.248  36.781  0.00  0.00    -0.308 OA
HETATM    2  O   UNN     0     -40.983  -8.201  36.418  0.00  0.00    -0.287 OA
HETATM    3  C   UNN     0     -39.831 -12.542  38.033  0.00  0.00     0.045 A 
HETATM    4  C   UNN     0     -39.547 -11.360  37.347  0.00  0.00     0.107 A 
HETATM    5  C   UNN     0     -40.512 -10.358  37.259  0.00  0.00     0.082 A 
HETATM    6  C   UNN     0     -41.079 -12.715  38.631  0.00  0.00     0.082 A 
HETATM    7  C   UNN     0     -41.764 -10.527  37.856  0.00  0.00     0.085 A 
HETATM    8  C   UNN     0     -42.044 -11.710  38.542  0.00  0.00     0.075 A 
HETATM    9  C   UNN     0     -37.996 -10.088  36.087  0.00  0.00     0.090 A 
HETATM   10  C   UNN     0     -40.186  -9.122  36.531  0.00  0.00     0.190 A 
HETATM   11  C   UNN     0     -38.835  -9.051  35.938  0.00  0.00     0.094 A 
ENDROOT
BRANCH   3  12
HETATM   12  C   UNN     0     -38.835 -13.595  38.133  0.00  0.00     0.014 A 
HETATM   13  C   UNN     0     -37.923 -13.564  39.188  0.00  0.00     0.029 A 
HETATM   14  C   UNN     0     -36.961 -14.566  39.302  0.00  0.00    -0.001 A 
HETATM   15  C   UNN     0     -36.911 -15.597  38.364  0.00  0.00     0.017 A 
HETATM   16  C   UNN     0     -37.824 -15.625  37.310  0.00  0.00     0.038 A 
HETATM   17  C   UNN     0     -38.788 -14.622  37.195  0.00  0.00     0.076 A 
BRANCH  14  18
HETATM   18  C   UNN     0     -35.993 -14.539  40.417  0.00  0.00     0.090 A 
HETATM   19  O   UNN     0     -36.387 -13.748  41.486  0.00  0.00    -0.309 OA
HETATM   20  C   UNN     0     -35.557 -13.659  42.575  0.00  0.00     0.095 A 
HETATM   21  C   UNN     0     -34.342 -14.337  42.656  0.00  0.00     0.081 A 
HETATM   22  C   UNN     0     -35.977 -12.851  43.632  0.00  0.00     0.075 A 
HETATM   23  C   UNN     0     -33.924 -15.184  41.529  0.00  0.00     0.190 A 
HETATM   24  C   UNN     0     -33.537 -14.211  43.791  0.00  0.00     0.085 A 
HETATM   25  O   UNN     0     -32.873 -15.808  41.534  0.00  0.00    -0.287 OA
HETATM   26  C   UNN     0     -34.851 -15.243  40.380  0.00  0.00     0.094 A 
HETATM   27  C   UNN     0     -33.960 -13.400  44.846  0.00  0.00     0.074 A 
HETATM   28  C   UNN     0     -35.177 -12.722  44.767  0.00  0.00     0.071 A 
BRANCH  24  29
HETATM   29  O   UNN     0     -32.342 -14.851  43.918  0.00  0.00    -0.360 OA
HETATM   30  H   UNN     0     -31.614 -14.211  43.946  0.00  0.00     0.217 HD
ENDBRANCH  24  29
BRANCH  28  31
HETATM   31  O   UNN     0     -35.584 -11.934  45.799  0.00  0.00    -0.361 OA
HETATM   32  H   UNN     0     -36.059 -11.164  45.440  0.00  0.00     0.217 HD
ENDBRANCH  28  31
ENDBRANCH  14  18
BRANCH  17  33
HETATM   33  O   UNN     0     -39.669 -14.675  36.155  0.00  0.00    -0.360 OA
HETATM   34  H   UNN     0     -39.344 -14.111  35.433  0.00  0.00     0.217 HD
ENDBRANCH  17  33
ENDBRANCH   3  12
BRANCH   6  35
HETATM   35  O   UNN     0     -41.388 -13.856  39.310  0.00  0.00    -0.360 OA
HETATM   36  H   UNN     0     -41.372 -14.610  38.695  0.00  0.00     0.217 HD
ENDBRANCH   6  35
BRANCH   9  37
HETATM   37  C   UNN     0     -36.631 -10.070  35.525  0.00  0.00    -0.002 A 
HETATM   38  C   UNN     0     -36.104  -8.886  35.001  0.00  0.00     0.017 A 
HETATM   39  C   UNN     0     -34.813  -8.868  34.471  0.00  0.00     0.037 A 
HETATM   40  C   UNN     0     -34.046 -10.034  34.462  0.00  0.00     0.065 A 
HETATM   41  C   UNN     0     -34.569 -11.216  34.983  0.00  0.00     0.037 A 
HETATM   42  C   UNN     0     -35.860 -11.234  35.514  0.00  0.00     0.017 A 
BRANCH  40  43
HETATM   43  O   UNN     0     -32.787 -10.016  33.944  0.00  0.00    -0.361 OA
HETATM   44  H   UNN     0     -32.846  -9.985  32.974  0.00  0.00     0.217 HD
ENDBRANCH  40  43
ENDBRANCH   9  37
BRANCH   7  45
HETATM   45  O   UNN     0     -42.739  -9.578  37.796  0.00  0.00    -0.360 OA
HETATM   46  H   UNN     0     -42.663  -9.063  36.979  0.00  0.00     0.217 HD
ENDBRANCH   7  45
TORSDOF 9
ENDMDL
MODEL 8
REMARK VINA RESULT:      -8.3     28.628     31.834
REMARK  9 active torsions:
REMARK  status: ('A' for Active; 'I' for Inactive)
REMARK    1  A    between atoms: O_3  and  C_17 
REMARK    2  A    between atoms: O_4  and  C_18 
REMARK    3  A    between atoms: O_5  and  C_19 
REMARK    4  A    between atoms: O_7  and  C_32 
REMARK    5  A    between atoms: O_9  and  C_36 
REMARK    6  A    between atoms: O_10  and  C_40 
REMARK    7  A    between atoms: C_11  and  C_13 
REMARK    8  A    between atoms: C_15  and  C_20 
REMARK    9  A    between atoms: C_22  and  C_29 
ROOT
HETATM    1  O   UNN     0     -39.236  14.134  54.009  0.00  0.00    -0.308 OA
HETATM    2  O   UNN     0     -40.952  17.767  53.337  0.00  0.00    -0.287 OA
HETATM    3  C   UNN     0     -41.343  13.071  54.096  0.00  0.00     0.045 A 
HETATM    4  C   UNN     0     -40.602  14.242  53.934  0.00  0.00     0.107 A 
HETATM    5  C   UNN     0     -41.253  15.453  53.704  0.00  0.00     0.082 A 
HETATM    6  C   UNN     0     -42.735  13.118  54.030  0.00  0.00     0.082 A 
HETATM    7  C   UNN     0     -42.647  15.504  53.637  0.00  0.00     0.085 A 
HETATM    8  C   UNN     0     -43.386  14.331  53.801  0.00  0.00     0.075 A 
HETATM    9  C   UNN     0     -38.473  15.280  53.844  0.00  0.00     0.090 A 
HETATM   10  C   UNN     0     -40.447  16.672  53.537  0.00  0.00     0.190 A 
HETATM   11  C   UNN     0     -38.982  16.502  53.625  0.00  0.00     0.094 A 
ENDROOT
BRANCH   3  12
HETATM   12  C   UNN     0     -40.677  11.803  54.337  0.00  0.00     0.014 A 
HETATM   13  C   UNN     0     -40.459  11.393  55.651  0.00  0.00     0.029 A 
HETATM   14  C   UNN     0     -39.823  10.178  55.903  0.00  0.00    -0.001 A 
HETATM   15  C   UNN     0     -39.407   9.375  54.841  0.00  0.00     0.017 A 
HETATM   16  C   UNN     0     -39.627   9.788  53.527  0.00  0.00     0.038 A 
HETATM   17  C   UNN     0     -40.263  11.003  53.275  0.00  0.00     0.076 A 
BRANCH  14  18
HETATM   18  C   UNN     0     -39.590   9.739  57.293  0.00  0.00     0.090 A 
HETATM   19  O   UNN     0     -39.262   8.397  57.413  0.00  0.00    -0.309 OA
HETATM   20  C   UNN     0     -39.021   7.891  58.666  0.00  0.00     0.095 A 
HETATM   21  C   UNN     0     -39.084   8.670  59.820  0.00  0.00     0.081 A 
HETATM   22  C   UNN     0     -38.700   6.537  58.755  0.00  0.00     0.075 A 
HETATM   23  C   UNN     0     -39.423  10.096  59.697  0.00  0.00     0.190 A 
HETATM   24  C   UNN     0     -38.828   8.102  61.070  0.00  0.00     0.085 A 
HETATM   25  O   UNN     0     -39.493  10.838  60.666  0.00  0.00    -0.287 OA
HETATM   26  C   UNN     0     -39.676  10.590  58.327  0.00  0.00     0.094 A 
HETATM   27  C   UNN     0     -38.508   6.746  61.156  0.00  0.00     0.074 A 
HETATM   28  C   UNN     0     -38.444   5.965  60.001  0.00  0.00     0.071 A 
BRANCH  24  29
HETATM   29  O   UNN     0     -38.877   8.820  62.226  0.00  0.00    -0.360 OA
HETATM   30  H   UNN     0     -39.776   9.146  62.387  0.00  0.00     0.217 HD
ENDBRANCH  24  29
BRANCH  28  31
HETATM   31  O   UNN     0     -38.130   4.644  60.091  0.00  0.00    -0.361 OA
HETATM   32  H   UNN     0     -38.318   4.336  60.995  0.00  0.00     0.217 HD
ENDBRANCH  28  31
ENDBRANCH  14  18
BRANCH  17  33
HETATM   33  O   UNN     0     -40.465  11.382  51.980  0.00  0.00    -0.360 OA
HETATM   34  H   UNN     0     -40.141  12.290  51.859  0.00  0.00     0.217 HD
ENDBRANCH  17  33
ENDBRANCH   3  12
BRANCH   6  35
HETATM   35  O   UNN     0     -43.490  11.993  54.187  0.00  0.00    -0.360 OA
HETATM   36  H   UNN     0     -42.923  11.209  54.087  0.00  0.00     0.217 HD
ENDBRANCH   6  35
BRANCH   9  37
HETATM   37  C   UNN     0     -37.018  15.051  53.951  0.00  0.00    -0.002 A 
HETATM   38  C   UNN     0     -36.529  13.774  54.240  0.00  0.00     0.017 A 
HETATM   39  C   UNN     0     -35.155  13.557  54.340  0.00  0.00     0.037 A 
HETATM   40  C   UNN     0     -34.265  14.615  54.151  0.00  0.00     0.065 A 
HETATM   41  C   UNN     0     -34.750  15.890  53.862  0.00  0.00     0.037 A 
HETATM   42  C   UNN     0     -36.125  16.108  53.762  0.00  0.00     0.017 A 
BRANCH  40  43
HETATM   43  O   UNN     0     -32.924  14.402  54.248  0.00  0.00    -0.361 OA
HETATM   44  H   UNN     0     -32.569  14.955  54.966  0.00  0.00     0.217 HD
ENDBRANCH  40  43
ENDBRANCH   9  37
BRANCH   7  45
HETATM   45  O   UNN     0     -43.329  16.661  53.413  0.00  0.00    -0.360 OA
HETATM   46  H   UNN     0     -42.802  17.426  53.690  0.00  0.00     0.217 HD
ENDBRANCH   7  45
TORSDOF 9
ENDMDL
MODEL 9
REMARK VINA RESULT:      -8.2      3.617      9.121
REMARK  9 active torsions:
REMARK  status: ('A' for Active; 'I' for Inactive)
REMARK    1  A    between atoms: O_3  and  C_17 
REMARK    2  A    between atoms: O_4  and  C_18 
REMARK    3  A    between atoms: O_5  and  C_19 
REMARK    4  A    between atoms: O_7  and  C_32 
REMARK    5  A    between atoms: O_9  and  C_36 
REMARK    6  A    between atoms: O_10  and  C_40 
REMARK    7  A    between atoms: C_11  and  C_13 
REMARK    8  A    between atoms: C_15  and  C_20 
REMARK    9  A    between atoms: C_22  and  C_29 
ROOT
HETATM    1  O   UNN     0      -9.056  12.771  66.838  0.00  0.00    -0.308 OA
HETATM    2  O   UNN     0      -9.286   9.609  64.278  0.00  0.00    -0.287 OA
HETATM    3  C   UNN     0     -10.586  14.023  65.547  0.00  0.00     0.045 A 
HETATM    4  C   UNN     0      -9.868  12.842  65.734  0.00  0.00     0.107 A 
HETATM    5  C   UNN     0      -9.995  11.797  64.820  0.00  0.00     0.082 A 
HETATM    6  C   UNN     0     -11.428  14.155  64.444  0.00  0.00     0.082 A 
HETATM    7  C   UNN     0     -10.837  11.925  63.713  0.00  0.00     0.085 A 
HETATM    8  C   UNN     0     -11.554  13.109  63.529  0.00  0.00     0.075 A 
HETATM    9  C   UNN     0      -8.335  11.605  67.053  0.00  0.00     0.090 A 
HETATM   10  C   UNN     0      -9.225  10.562  65.041  0.00  0.00     0.190 A 
HETATM   11  C   UNN     0      -8.367  10.536  66.244  0.00  0.00     0.094 A 
ENDROOT
BRANCH   3  12
HETATM   12  C   UNN     0     -10.462  15.120  66.492  0.00  0.00     0.014 A 
HETATM   13  C   UNN     0      -9.433  16.045  66.322  0.00  0.00     0.029 A 
HETATM   14  C   UNN     0      -9.298  17.105  67.217  0.00  0.00    -0.001 A 
HETATM   15  C   UNN     0     -10.193  17.241  68.279  0.00  0.00     0.017 A 
HETATM   16  C   UNN     0     -11.221  16.314  68.446  0.00  0.00     0.038 A 
HETATM   17  C   UNN     0     -11.357  15.252  67.551  0.00  0.00     0.076 A 
BRANCH  14  18
HETATM   18  C   UNN     0      -8.210  18.088  67.042  0.00  0.00     0.090 A 
HETATM   19  O   UNN     0      -7.604  18.041  65.795  0.00  0.00    -0.309 OA
HETATM   20  C   UNN     0      -6.582  18.918  65.531  0.00  0.00     0.095 A 
HETATM   21  C   UNN     0      -6.135  19.858  66.458  0.00  0.00     0.081 A 
HETATM   22  C   UNN     0      -5.987  18.842  64.271  0.00  0.00     0.075 A 
HETATM   23  C   UNN     0      -6.780  19.917  67.778  0.00  0.00     0.190 A 
HETATM   24  C   UNN     0      -5.091  20.727  66.134  0.00  0.00     0.085 A 
HETATM   25  O   UNN     0      -6.441  20.718  68.637  0.00  0.00    -0.287 OA
HETATM   26  C   UNN     0      -7.873  18.950  68.013  0.00  0.00     0.094 A 
HETATM   27  C   UNN     0      -4.497  20.648  64.873  0.00  0.00     0.074 A 
HETATM   28  C   UNN     0      -4.945  19.708  63.944  0.00  0.00     0.071 A 
BRANCH  24  29
HETATM   29  O   UNN     0      -4.617  21.663  67.004  0.00  0.00    -0.360 OA
HETATM   30  H   UNN     0      -5.290  22.340  67.173  0.00  0.00     0.217 HD
ENDBRANCH  24  29
BRANCH  28  31
HETATM   31  O   UNN     0      -4.362  19.637  62.716  0.00  0.00    -0.361 OA
HETATM   32  H   UNN     0      -3.405  19.501  62.828  0.00  0.00     0.217 HD
ENDBRANCH  28  31
ENDBRANCH  14  18
BRANCH  17  33
HETATM   33  O   UNN     0     -12.372  14.361  67.738  0.00  0.00    -0.360 OA
HETATM   34  H   UNN     0     -11.997  13.490  67.952  0.00  0.00     0.217 HD
ENDBRANCH  17  33
ENDBRANCH   3  12
BRANCH   6  35
HETATM   35  O   UNN     0     -12.143  15.297  64.230  0.00  0.00    -0.360 OA
HETATM   36  H   UNN     0     -12.456  15.311  63.309  0.00  0.00     0.217 HD
ENDBRANCH   6  35
BRANCH   9  37
HETATM   37  C   UNN     0      -7.490  11.639  68.264  0.00  0.00    -0.002 A 
HETATM   38  C   UNN     0      -7.316  10.483  69.029  0.00  0.00     0.017 A 
HETATM   39  C   UNN     0      -6.517  10.514  70.173  0.00  0.00     0.037 A 
HETATM   40  C   UNN     0      -5.890  11.701  70.554  0.00  0.00     0.065 A 
HETATM   41  C   UNN     0      -6.062  12.856  69.792  0.00  0.00     0.037 A 
HETATM   42  C   UNN     0      -6.861  12.825  68.649  0.00  0.00     0.017 A 
BRANCH  40  43
HETATM   43  O   UNN     0      -5.111  11.731  71.670  0.00  0.00    -0.361 OA
HETATM   44  H   UNN     0      -5.381  11.008  72.263  0.00  0.00     0.217 HD
ENDBRANCH  40  43
ENDBRANCH   9  37
BRANCH   7  45
HETATM   45  O   UNN     0     -10.997  10.933  62.794  0.00  0.00    -0.360 OA
HETATM   46  H   UNN     0     -10.740  10.077  63.169  0.00  0.00     0.217 HD
ENDBRANCH   7  45
TORSDOF 9
ENDMDL
