MODEL 1
REMARK VINA RESULT:      -9.0      0.000      0.000
REMARK  11 active torsions:
REMARK  status: ('A' for Active; 'I' for Inactive)
REMARK    1  A    between atoms: C_2  and  O_31 
REMARK    2  A    between atoms: C_10  and  O_23 
REMARK    3  A    between atoms: C_12  and  O_22 
REMARK    4  A    between atoms: C_13  and  O_20 
REMARK    5  A    between atoms: C_14  and  C_15 
REMARK    6  A    between atoms: C_15  and  C_16 
REMARK    7  A    between atoms: C_16  and  C_17 
REMARK    8  A    between atoms: O_22  and  C_32 
REMARK    9  A    between atoms: C_27  and  C_34 
REMARK   10  A    between atoms: O_31  and  C_33 
REMARK   11  A    between atoms: C_48  and  C_49 
ROOT
HETATM    1  C           1     -11.047  15.692  68.419  0.00  0.00     0.024 A 
HETATM    2  C           1     -11.911  15.045  69.043  0.00  0.00     0.066 C 
HETATM    3  C           1     -12.081  13.700  69.061  0.00  0.00     0.071 C 
HETATM    4  C           1     -11.308  12.823  68.383  0.00  0.00     0.088 A 
HETATM    5  C           1     -10.295  13.288  67.662  0.00  0.00     0.016 A 
HETATM    6  C           1     -10.141  15.138  67.846  0.00  0.00     0.002 A 
HETATM    7  O           1     -11.565  11.486  68.461  0.00  0.00    -0.309 OA
HETATM    8  C           1     -10.759  10.590  67.759  0.00  0.00     0.092 A 
HETATM    9  C           1      -9.707  11.000  66.967  0.00  0.00     0.041 A 
HETATM   10  C           1      -9.486  12.447  66.920  0.00  0.00     0.088 A 
HETATM   11  C           1     -11.069   9.262  67.887  0.00  0.00     0.078 A 
HETATM   12  C           1     -10.353   8.303  67.244  0.00  0.00     0.112 A 
HETATM   13  C           1      -9.302   8.676  66.448  0.00  0.00     0.109 A 
HETATM   14  C           1      -8.990  10.003  66.318  0.00  0.00    -0.003 A 
HETATM   15  O           1      -8.729  16.191  66.686  0.00  0.00     0.000 OA
HETATM   16  C           1     -10.696  17.016  68.253  0.00  0.00     0.025 A 
HETATM   17  C           1      -9.898  16.217  67.429  0.00  0.00     0.077 A 
HETATM   18  C           1      -9.311  17.801  67.226  0.00  0.00    -0.039 A 
HETATM   19  C           1      -7.791  18.858  66.134  0.00  0.00     0.023 A 
HETATM   20  C           1      -9.996  19.716  67.944  0.00  0.00     0.023 A 
HETATM   21  C           1      -8.993  15.186  66.800  0.00  0.00    -0.026 A 
HETATM   22  C           1      -9.873  16.392  65.807  0.00  0.00     0.003 A 
HETATM   23  C           1      -9.743  18.263  65.951  0.00  0.00     0.002 C 
HETATM   24  C           1      -8.836  19.394  67.003  0.00  0.00    -0.014 A 
HETATM   25  C           1      -8.132  18.091  68.003  0.00  0.00     0.002 C 
HETATM   26  C           1      -8.189  16.196  67.972  0.00  0.00     0.002 A 
ENDROOT
BRANCH   2  27
HETATM   27  O           1     -12.715  15.911  69.748  0.00  0.00    -0.314 OA
BRANCH  27  28
HETATM   28  C           1     -12.727  15.580  71.096  0.00  0.00     0.075 A 
HETATM   29  C           1     -11.888  16.214  71.967  0.00  0.00     0.037 A 
HETATM   30  C           1     -11.899  15.894  73.289  0.00  0.00     0.003 A 
HETATM   31  C           1     -12.758  14.941  73.752  0.00  0.00     0.000 A 
HETATM   32  C           1     -13.608  14.311  72.891  0.00  0.00     0.003 A 
HETATM   33  C           1     -13.593  14.628  71.569  0.00  0.00     0.037 A 
ENDBRANCH  27  28
ENDBRANCH   2  27
BRANCH  10  34
HETATM   34  O           1      -8.541  13.140  66.232  0.00  0.00    -0.359 OA
ATOM     35  HO          1      -8.762  13.211  65.310  1.00  0.00     0.218 HD
ENDBRANCH  10  34
BRANCH  14  36
HETATM   36  C           1      -7.825  10.403  65.438  0.00  0.00     0.070 C 
BRANCH  36  37
HETATM   37  C           1      -8.037  10.483  64.158  0.00  0.00    -0.020 C 
BRANCH  37  38
HETATM   38  C           1      -9.085  10.593  63.322  0.00  0.00    -0.091 C 
HETATM   39  C           1     -10.153  11.655  63.269  0.00  0.00     0.042 C 
HETATM   40  C           1      -9.091   9.470  62.368  0.00  0.00     0.042 C 
ENDBRANCH  37  38
ENDBRANCH  36  37
ENDBRANCH  14  36
BRANCH  12  41
HETATM   41  O           1     -10.691   6.961  67.392  0.00  0.00    -0.308 OA
BRANCH  41  42
HETATM   42  C           1     -10.463   6.504  68.685  0.00  0.00     0.076 A 
HETATM   43  C           1      -9.197   6.194  69.097  0.00  0.00     0.037 A 
HETATM   44  C           1      -8.973   5.763  70.368  0.00  0.00     0.003 A 
HETATM   45  C           1     -10.011   5.659  71.246  0.00  0.00     0.000 A 
HETATM   46  C           1     -11.275   5.984  70.855  0.00  0.00     0.003 A 
HETATM   47  C           1     -11.507   6.387  69.577  0.00  0.00     0.037 A 
ENDBRANCH  41  42
ENDBRANCH  12  41
BRANCH  13  48
HETATM   48  O           1      -8.560   7.706  65.772  0.00  0.00    -0.352 OA
HETATM   49  C           1      -7.386   7.369  66.403  0.00  0.00     0.210 C 
ENDBRANCH  13  48
TORSDOF 11
ENDMDL
MODEL 2
REMARK VINA RESULT:      -8.6     30.830     33.141
REMARK  11 active torsions:
REMARK  status: ('A' for Active; 'I' for Inactive)
REMARK    1  A    between atoms: C_2  and  O_31 
REMARK    2  A    between atoms: C_10  and  O_23 
REMARK    3  A    between atoms: C_12  and  O_22 
REMARK    4  A    between atoms: C_13  and  O_20 
REMARK    5  A    between atoms: C_14  and  C_15 
REMARK    6  A    between atoms: C_15  and  C_16 
REMARK    7  A    between atoms: C_16  and  C_17 
REMARK    8  A    between atoms: O_22  and  C_32 
REMARK    9  A    between atoms: C_27  and  C_34 
REMARK   10  A    between atoms: O_31  and  C_33 
REMARK   11  A    between atoms: C_48  and  C_49 
ROOT
HETATM    1  C           1     -40.427  11.279  53.111  0.00  0.00     0.024 A 
HETATM    2  C           1     -39.564  10.841  53.898  0.00  0.00     0.066 C 
HETATM    3  C           1     -38.629  11.553  54.575  0.00  0.00     0.071 C 
HETATM    4  C           1     -38.489  12.895  54.501  0.00  0.00     0.088 A 
HETATM    5  C           1     -39.327  13.584  53.735  0.00  0.00     0.016 A 
HETATM    6  C           1     -40.610  12.463  52.977  0.00  0.00     0.002 A 
HETATM    7  O           1     -37.511  13.519  55.219  0.00  0.00    -0.309 OA
HETATM    8  C           1     -37.378  14.905  55.136  0.00  0.00     0.092 A 
HETATM    9  C           1     -38.192  15.684  54.340  0.00  0.00     0.041 A 
HETATM   10  C           1     -39.218  14.956  53.592  0.00  0.00     0.088 A 
HETATM   11  C           1     -36.380  15.467  55.888  0.00  0.00     0.078 A 
HETATM   12  C           1     -36.158  16.807  55.879  0.00  0.00     0.112 A 
HETATM   13  C           1     -36.947  17.611  55.099  0.00  0.00     0.109 A 
HETATM   14  C           1     -37.945  17.051  54.347  0.00  0.00    -0.003 A 
HETATM   15  O           1     -41.979  13.239  51.572  0.00  0.00     0.000 OA
HETATM   16  C           1     -41.442  10.761  52.333  0.00  0.00     0.025 A 
HETATM   17  C           1     -41.327  12.136  52.096  0.00  0.00     0.077 A 
HETATM   18  C           1     -42.666  11.630  51.176  0.00  0.00    -0.039 A 
HETATM   19  C           1     -44.138  12.445  49.838  0.00  0.00     0.023 A 
HETATM   20  C           1     -43.509   9.687  50.769  0.00  0.00     0.023 A 
HETATM   21  C           1     -41.207  13.638  52.153  0.00  0.00    -0.026 A 
HETATM   22  C           1     -41.001  12.739  50.615  0.00  0.00     0.003 A 
HETATM   23  C           1     -42.269  11.606  49.809  0.00  0.00     0.002 C 
HETATM   24  C           1     -43.921  11.053  50.224  0.00  0.00    -0.014 A 
HETATM   25  C           1     -43.938  11.894  51.800  0.00  0.00     0.002 C 
HETATM   26  C           1     -42.742  13.041  52.723  0.00  0.00     0.002 A 
ENDROOT
BRANCH   2  27
HETATM   27  O           1     -39.681   9.474  53.998  0.00  0.00    -0.314 OA
BRANCH  27  28
HETATM   28  C           1     -39.628   9.075  55.326  0.00  0.00     0.075 A 
HETATM   29  C           1     -40.154   9.869  56.304  0.00  0.00     0.037 A 
HETATM   30  C           1     -40.106   9.480  57.607  0.00  0.00     0.003 A 
HETATM   31  C           1     -39.538   8.285  57.940  0.00  0.00     0.000 A 
HETATM   32  C           1     -39.021   7.480  56.968  0.00  0.00     0.003 A 
HETATM   33  C           1     -39.065   7.872  55.667  0.00  0.00     0.037 A 
ENDBRANCH  27  28
ENDBRANCH   2  27
BRANCH  10  34
HETATM   34  O           1     -40.151  15.445  52.734  0.00  0.00    -0.359 OA
ATOM     35  HO          1     -40.560  16.232  53.073  1.00  0.00     0.218 HD
ENDBRANCH  10  34
BRANCH  14  36
HETATM   36  C           1     -38.814  17.948  53.491  0.00  0.00     0.070 C 
BRANCH  36  37
HETATM   37  C           1     -38.402  18.212  52.286  0.00  0.00    -0.020 C 
BRANCH  37  38
HETATM   38  C           1     -38.917  18.660  51.128  0.00  0.00    -0.091 C 
HETATM   39  C           1     -38.209  19.245  49.933  0.00  0.00     0.042 C 
HETATM   40  C           1     -40.383  18.510  51.136  0.00  0.00     0.042 C 
ENDBRANCH  37  38
ENDBRANCH  36  37
ENDBRANCH  14  36
BRANCH  12  41
HETATM   41  O           1     -35.136  17.351  56.653  0.00  0.00    -0.308 OA
BRANCH  41  42
HETATM   42  C           1     -35.487  17.440  57.995  0.00  0.00     0.076 A 
HETATM   43  C           1     -36.258  18.477  58.441  0.00  0.00     0.037 A 
HETATM   44  C           1     -36.615  18.554  59.752  0.00  0.00     0.003 A 
HETATM   45  C           1     -36.223  17.584  60.625  0.00  0.00     0.000 A 
HETATM   46  C           1     -35.471  16.534  60.190  0.00  0.00     0.003 A 
HETATM   47  C           1     -35.088  16.468  58.886  0.00  0.00     0.037 A 
ENDBRANCH  41  42
ENDBRANCH  12  41
BRANCH  13  48
HETATM   48  O           1     -36.729  18.988  55.071  0.00  0.00    -0.352 OA
HETATM   49  C           1     -35.580  19.353  54.411  0.00  0.00     0.210 C 
ENDBRANCH  13  48
TORSDOF 11
ENDMDL
MODEL 3
REMARK VINA RESULT:      -8.0     20.849     25.253
REMARK  11 active torsions:
REMARK  status: ('A' for Active; 'I' for Inactive)
REMARK    1  A    between atoms: C_2  and  O_31 
REMARK    2  A    between atoms: C_10  and  O_23 
REMARK    3  A    between atoms: C_12  and  O_22 
REMARK    4  A    between atoms: C_13  and  O_20 
REMARK    5  A    between atoms: C_14  and  C_15 
REMARK    6  A    between atoms: C_15  and  C_16 
REMARK    7  A    between atoms: C_16  and  C_17 
REMARK    8  A    between atoms: O_22  and  C_32 
REMARK    9  A    between atoms: C_27  and  C_34 
REMARK   10  A    between atoms: O_31  and  C_33 
REMARK   11  A    between atoms: C_48  and  C_49 
ROOT
HETATM    1  C           1     -19.676   8.873  48.262  0.00  0.00     0.024 A 
HETATM    2  C           1     -19.897   9.323  47.120  0.00  0.00     0.066 C 
HETATM    3  C           1     -20.638   8.752  46.137  0.00  0.00     0.071 C 
HETATM    4  C           1     -21.276   7.567  46.253  0.00  0.00     0.088 A 
HETATM    5  C           1     -21.203   6.911  47.405  0.00  0.00     0.016 A 
HETATM    6  C           1     -20.249   7.894  48.671  0.00  0.00     0.002 A 
HETATM    7  O           1     -21.992   7.073  45.202  0.00  0.00    -0.309 OA
HETATM    8  C           1     -22.649   5.849  45.334  0.00  0.00     0.092 A 
HETATM    9  C           1     -22.596   5.098  46.490  0.00  0.00     0.041 A 
HETATM   10  C           1     -21.808   5.679  47.579  0.00  0.00     0.088 A 
HETATM   11  C           1     -23.354   5.416  44.243  0.00  0.00     0.078 A 
HETATM   12  C           1     -24.027   4.236  44.260  0.00  0.00     0.112 A 
HETATM   13  C           1     -23.995   3.464  45.391  0.00  0.00     0.109 A 
HETATM   14  C           1     -23.291   3.895  46.483  0.00  0.00    -0.003 A 
HETATM   15  O           1     -19.816   7.040  50.551  0.00  0.00     0.000 OA
HETATM   16  C           1     -18.977   9.263  49.385  0.00  0.00     0.025 A 
HETATM   17  C           1     -19.506   7.984  49.586  0.00  0.00     0.077 A 
HETATM   18  C           1     -18.765   8.402  51.060  0.00  0.00    -0.039 A 
HETATM   19  C           1     -18.430   7.579  53.017  0.00  0.00     0.023 A 
HETATM   20  C           1     -17.558  10.085  51.663  0.00  0.00     0.023 A 
HETATM   21  C           1     -20.342   6.734  49.701  0.00  0.00    -0.026 A 
HETATM   22  C           1     -18.560   6.691  49.899  0.00  0.00     0.003 A 
HETATM   23  C           1     -17.558   7.656  51.165  0.00  0.00     0.002 C 
HETATM   24  C           1     -17.943   8.837  52.455  0.00  0.00    -0.014 A 
HETATM   25  C           1     -19.685   8.885  52.060  0.00  0.00     0.002 C 
HETATM   26  C           1     -20.805   7.985  50.822  0.00  0.00     0.002 A 
ENDROOT
BRANCH   2  27
HETATM   27  O           1     -19.262  10.534  46.970  0.00  0.00    -0.314 OA
BRANCH  27  28
HETATM   28  C           1     -20.180  11.538  46.694  0.00  0.00     0.075 A 
HETATM   29  C           1     -21.082  11.923  47.643  0.00  0.00     0.037 A 
HETATM   30  C           1     -21.982  12.908  47.377  0.00  0.00     0.003 A 
HETATM   31  C           1     -21.979  13.523  46.160  0.00  0.00     0.000 A 
HETATM   32  C           1     -21.074  13.152  45.209  0.00  0.00     0.003 A 
HETATM   33  C           1     -20.178  12.165  45.475  0.00  0.00     0.037 A 
ENDBRANCH  27  28
ENDBRANCH   2  27
BRANCH  10  34
HETATM   34  O           1     -21.572   5.176  48.819  0.00  0.00    -0.359 OA
ATOM     35  HO          1     -21.725   5.826  49.495  1.00  0.00     0.218 HD
ENDBRANCH  10  34
BRANCH  14  36
HETATM   36  C           1     -23.264   3.036  47.729  0.00  0.00     0.070 C 
BRANCH  36  37
HETATM   37  C           1     -22.366   2.098  47.794  0.00  0.00    -0.020 C 
BRANCH  37  38
HETATM   38  C           1     -21.511   1.593  48.701  0.00  0.00    -0.091 C 
HETATM   39  C           1     -21.804   0.795  49.946  0.00  0.00     0.042 C 
HETATM   40  C           1     -20.124   1.921  48.326  0.00  0.00     0.042 C 
ENDBRANCH  37  38
ENDBRANCH  36  37
ENDBRANCH  14  36
BRANCH  12  41
HETATM   41  O           1     -24.736   3.820  43.136  0.00  0.00    -0.308 OA
BRANCH  41  42
HETATM   42  C           1     -23.896   3.437  42.099  0.00  0.00     0.076 A 
HETATM   43  C           1     -23.114   2.322  42.217  0.00  0.00     0.037 A 
HETATM   44  C           1     -22.304   1.937  41.194  0.00  0.00     0.003 A 
HETATM   45  C           1     -22.283   2.652  40.033  0.00  0.00     0.000 A 
HETATM   46  C           1     -23.073   3.753  39.893  0.00  0.00     0.003 A 
HETATM   47  C           1     -23.862   4.158  40.925  0.00  0.00     0.037 A 
ENDBRANCH  41  42
ENDBRANCH  12  41
BRANCH  13  48
HETATM   48  O           1     -24.674   2.246  45.424  0.00  0.00    -0.352 OA
HETATM   49  C           1     -26.014   2.366  45.705  0.00  0.00     0.210 C 
ENDBRANCH  13  48
TORSDOF 11
ENDMDL
MODEL 4
REMARK VINA RESULT:      -7.9     30.472     32.676
REMARK  11 active torsions:
REMARK  status: ('A' for Active; 'I' for Inactive)
REMARK    1  A    between atoms: C_2  and  O_31 
REMARK    2  A    between atoms: C_10  and  O_23 
REMARK    3  A    between atoms: C_12  and  O_22 
REMARK    4  A    between atoms: C_13  and  O_20 
REMARK    5  A    between atoms: C_14  and  C_15 
REMARK    6  A    between atoms: C_15  and  C_16 
REMARK    7  A    between atoms: C_16  and  C_17 
REMARK    8  A    between atoms: O_22  and  C_32 
REMARK    9  A    between atoms: C_27  and  C_34 
REMARK   10  A    between atoms: O_31  and  C_33 
REMARK   11  A    between atoms: C_48  and  C_49 
ROOT
HETATM    1  C           1     -41.760  11.666  55.244  0.00  0.00     0.024 A 
HETATM    2  C           1     -41.744  11.648  56.491  0.00  0.00     0.066 C 
HETATM    3  C           1     -40.843  12.243  57.313  0.00  0.00     0.071 C 
HETATM    4  C           1     -39.790  12.975  56.889  0.00  0.00     0.088 A 
HETATM    5  C           1     -39.620  13.155  55.585  0.00  0.00     0.016 A 
HETATM    6  C           1     -41.008  12.371  54.618  0.00  0.00     0.002 A 
HETATM    7  O           1     -38.935  13.528  57.797  0.00  0.00    -0.309 OA
HETATM    8  C           1     -37.852  14.285  57.347  0.00  0.00     0.092 A 
HETATM    9  C           1     -37.595  14.491  56.008  0.00  0.00     0.041 A 
HETATM   10  C           1     -38.545  13.869  55.085  0.00  0.00     0.088 A 
HETATM   11  C           1     -37.038  14.815  58.312  0.00  0.00     0.078 A 
HETATM   12  C           1     -35.952  15.564  57.988  0.00  0.00     0.112 A 
HETATM   13  C           1     -35.667  15.790  56.666  0.00  0.00     0.109 A 
HETATM   14  C           1     -36.479  15.260  55.700  0.00  0.00    -0.003 A 
HETATM   15  O           1     -40.930  12.341  52.510  0.00  0.00     0.000 OA
HETATM   16  C           1     -42.547  11.150  54.235  0.00  0.00     0.025 A 
HETATM   17  C           1     -41.438  11.798  53.678  0.00  0.00     0.077 A 
HETATM   18  C           1     -42.384  11.301  52.353  0.00  0.00    -0.039 A 
HETATM   19  C           1     -42.363  11.378  50.205  0.00  0.00     0.023 A 
HETATM   20  C           1     -44.169  10.101  52.200  0.00  0.00     0.023 A 
HETATM   21  C           1     -40.325  12.729  53.269  0.00  0.00    -0.026 A 
HETATM   22  C           1     -40.361  11.019  52.732  0.00  0.00     0.003 A 
HETATM   23  C           1     -41.733  10.188  51.749  0.00  0.00     0.002 C 
HETATM   24  C           1     -43.315  10.709  51.090  0.00  0.00    -0.014 A 
HETATM   25  C           1     -43.209  12.345  51.800  0.00  0.00     0.002 C 
HETATM   26  C           1     -41.908  13.291  52.804  0.00  0.00     0.002 A 
ENDROOT
BRANCH   2  27
HETATM   27  O           1     -42.807  10.910  56.956  0.00  0.00    -0.314 OA
BRANCH  27  28
HETATM   28  C           1     -43.620  11.684  57.773  0.00  0.00     0.075 A 
HETATM   29  C           1     -44.409  12.659  57.232  0.00  0.00     0.037 A 
HETATM   30  C           1     -45.209  13.418  58.029  0.00  0.00     0.003 A 
HETATM   31  C           1     -45.233  13.200  59.374  0.00  0.00     0.000 A 
HETATM   32  C           1     -44.457  12.221  59.923  0.00  0.00     0.003 A 
HETATM   33  C           1     -43.654  11.466  59.126  0.00  0.00     0.037 A 
ENDBRANCH  27  28
ENDBRANCH   2  27
BRANCH  10  34
HETATM   34  O           1     -38.549  13.893  53.726  0.00  0.00    -0.359 OA
ATOM     35  HO          1     -38.275  14.739  53.390  1.00  0.00     0.218 HD
ENDBRANCH  10  34
BRANCH  14  36
HETATM   36  C           1     -36.156  15.516  54.244  0.00  0.00     0.070 C 
BRANCH  36  37
HETATM   37  C           1     -36.620  16.606  53.707  0.00  0.00    -0.020 C 
BRANCH  37  38
HETATM   38  C           1     -36.159  17.636  52.976  0.00  0.00    -0.091 C 
HETATM   39  C           1     -34.736  18.036  52.685  0.00  0.00     0.042 C 
HETATM   40  C           1     -37.286  18.411  52.429  0.00  0.00     0.042 C 
ENDBRANCH  37  38
ENDBRANCH  36  37
ENDBRANCH  14  36
BRANCH  12  41
HETATM   41  O           1     -35.142  16.092  58.989  0.00  0.00    -0.308 OA
BRANCH  41  42
HETATM   42  C           1     -35.861  16.868  59.889  0.00  0.00     0.076 A 
HETATM   43  C           1     -36.592  17.938  59.452  0.00  0.00     0.037 A 
HETATM   44  C           1     -37.310  18.687  60.332  0.00  0.00     0.003 A 
HETATM   45  C           1     -37.321  18.362  61.656  0.00  0.00     0.000 A 
HETATM   46  C           1     -36.614  17.286  62.103  0.00  0.00     0.003 A 
HETATM   47  C           1     -35.871  16.552  61.231  0.00  0.00     0.037 A 
ENDBRANCH  41  42
ENDBRANCH  12  41
BRANCH  13  48
HETATM   48  O           1     -34.551  16.550  56.313  0.00  0.00    -0.352 OA
HETATM   49  C           1     -34.736  17.904  56.460  0.00  0.00     0.210 C 
ENDBRANCH  13  48
TORSDOF 11
ENDMDL
MODEL 5
REMARK VINA RESULT:      -7.9     22.629     27.175
REMARK  11 active torsions:
REMARK  status: ('A' for Active; 'I' for Inactive)
REMARK    1  A    between atoms: C_2  and  O_31 
REMARK    2  A    between atoms: C_10  and  O_23 
REMARK    3  A    between atoms: C_12  and  O_22 
REMARK    4  A    between atoms: C_13  and  O_20 
REMARK    5  A    between atoms: C_14  and  C_15 
REMARK    6  A    between atoms: C_15  and  C_16 
REMARK    7  A    between atoms: C_16  and  C_17 
REMARK    8  A    between atoms: O_22  and  C_32 
REMARK    9  A    between atoms: C_27  and  C_34 
REMARK   10  A    between atoms: O_31  and  C_33 
REMARK   11  A    between atoms: C_48  and  C_49 
ROOT
HETATM    1  C           1     -26.771  -4.965  56.173  0.00  0.00     0.024 A 
HETATM    2  C           1     -27.538  -5.944  56.078  0.00  0.00     0.066 C 
HETATM    3  C           1     -27.703  -6.952  56.970  0.00  0.00     0.071 C 
HETATM    4  C           1     -27.040  -7.050  58.143  0.00  0.00     0.088 A 
HETATM    5  C           1     -26.179  -6.094  58.473  0.00  0.00     0.016 A 
HETATM    6  C           1     -26.168  -4.738  57.193  0.00  0.00     0.002 A 
HETATM    7  O           1     -27.272  -8.109  58.971  0.00  0.00    -0.309 OA
HETATM    8  C           1     -26.582  -8.198  60.181  0.00  0.00     0.092 A 
HETATM    9  C           1     -25.653  -7.260  60.578  0.00  0.00     0.041 A 
HETATM   10  C           1     -25.445  -6.151  59.645  0.00  0.00     0.088 A 
HETATM   11  C           1     -26.869  -9.283  60.966  0.00  0.00     0.078 A 
HETATM   12  C           1     -26.252  -9.473  62.162  0.00  0.00     0.112 A 
HETATM   13  C           1     -25.324  -8.560  62.587  0.00  0.00     0.109 A 
HETATM   14  C           1     -25.036  -7.474  61.804  0.00  0.00    -0.003 A 
HETATM   15  O           1     -24.777  -3.161  57.351  0.00  0.00     0.000 OA
HETATM   16  C           1     -26.445  -3.858  55.417  0.00  0.00     0.025 A 
HETATM   17  C           1     -25.626  -3.906  56.551  0.00  0.00     0.077 A 
HETATM   18  C           1     -25.214  -2.458  55.758  0.00  0.00    -0.039 A 
HETATM   19  C           1     -23.879  -0.788  55.985  0.00  0.00     0.023 A 
HETATM   20  C           1     -25.808  -1.607  53.868  0.00  0.00     0.023 A 
HETATM   21  C           1     -25.013  -4.001  57.926  0.00  0.00    -0.026 A 
HETATM   22  C           1     -24.000  -3.998  56.446  0.00  0.00     0.003 A 
HETATM   23  C           1     -23.949  -2.651  55.134  0.00  0.00     0.002 C 
HETATM   24  C           1     -24.792  -1.090  54.885  0.00  0.00    -0.014 A 
HETATM   25  C           1     -25.838  -1.287  56.320  0.00  0.00     0.002 C 
HETATM   26  C           1     -25.996  -2.580  57.699  0.00  0.00     0.002 A 
ENDROOT
BRANCH   2  27
HETATM   27  O           1     -28.232  -5.873  54.893  0.00  0.00    -0.314 OA
BRANCH  27  28
HETATM   28  C           1     -27.866  -6.911  54.048  0.00  0.00     0.075 A 
HETATM   29  C           1     -28.477  -8.128  54.151  0.00  0.00     0.037 A 
HETATM   30  C           1     -28.123  -9.148  53.323  0.00  0.00     0.003 A 
HETATM   31  C           1     -27.159  -8.954  52.378  0.00  0.00     0.000 A 
HETATM   32  C           1     -26.551  -7.739  52.260  0.00  0.00     0.003 A 
HETATM   33  C           1     -26.903  -6.722  53.091  0.00  0.00     0.037 A 
ENDBRANCH  27  28
ENDBRANCH   2  27
BRANCH  10  34
HETATM   34  O           1     -24.603  -5.091  59.759  0.00  0.00    -0.359 OA
ATOM     35  HO          1     -25.057  -4.267  59.628  1.00  0.00     0.218 HD
ENDBRANCH  10  34
BRANCH  14  36
HETATM   36  C           1     -24.010  -6.470  62.284  0.00  0.00     0.070 C 
BRANCH  36  37
HETATM   37  C           1     -24.424  -5.508  63.054  0.00  0.00    -0.020 C 
BRANCH  37  38
HETATM   38  C           1     -24.234  -5.084  64.316  0.00  0.00    -0.091 C 
HETATM   39  C           1     -24.877  -5.568  65.591  0.00  0.00     0.042 C 
HETATM   40  C           1     -23.239  -3.998  64.340  0.00  0.00     0.042 C 
ENDBRANCH  37  38
ENDBRANCH  36  37
ENDBRANCH  14  36
BRANCH  12  41
HETATM   41  O           1     -26.563 -10.585  62.940  0.00  0.00    -0.308 OA
BRANCH  41  42
HETATM   42  C           1     -27.644 -10.350  63.781  0.00  0.00     0.076 A 
HETATM   43  C           1     -28.891 -10.801  63.448  0.00  0.00     0.037 A 
HETATM   44  C           1     -29.946 -10.585  64.281  0.00  0.00     0.003 A 
HETATM   45  C           1     -29.759  -9.936  65.464  0.00  0.00     0.000 A 
HETATM   46  C           1     -28.518  -9.499  65.818  0.00  0.00     0.003 A 
HETATM   47  C           1     -27.466  -9.686  64.976  0.00  0.00     0.037 A 
ENDBRANCH  41  42
ENDBRANCH  12  41
BRANCH  13  48
HETATM   48  O           1     -24.675  -8.742  63.809  0.00  0.00    -0.352 OA
HETATM   49  C           1     -23.582  -9.572  63.737  0.00  0.00     0.210 C 
ENDBRANCH  13  48
TORSDOF 11
ENDMDL
MODEL 6
REMARK VINA RESULT:      -7.7     31.139     33.687
REMARK  11 active torsions:
REMARK  status: ('A' for Active; 'I' for Inactive)
REMARK    1  A    between atoms: C_2  and  O_31 
REMARK    2  A    between atoms: C_10  and  O_23 
REMARK    3  A    between atoms: C_12  and  O_22 
REMARK    4  A    between atoms: C_13  and  O_20 
REMARK    5  A    between atoms: C_14  and  C_15 
REMARK    6  A    between atoms: C_15  and  C_16 
REMARK    7  A    between atoms: C_16  and  C_17 
REMARK    8  A    between atoms: O_22  and  C_32 
REMARK    9  A    between atoms: C_27  and  C_34 
REMARK   10  A    between atoms: O_31  and  C_33 
REMARK   11  A    between atoms: C_48  and  C_49 
ROOT
HETATM    1  C           1     -42.626  11.442  54.910  0.00  0.00     0.024 A 
HETATM    2  C           1     -41.844  11.360  53.943  0.00  0.00     0.066 C 
HETATM    3  C           1     -40.618  11.928  53.823  0.00  0.00     0.071 C 
HETATM    4  C           1     -40.036  12.694  54.771  0.00  0.00     0.088 A 
HETATM    5  C           1     -40.681  12.898  55.914  0.00  0.00     0.016 A 
HETATM    6  C           1     -42.287  11.952  55.949  0.00  0.00     0.002 A 
HETATM    7  O           1     -38.799  13.227  54.553  0.00  0.00    -0.309 OA
HETATM    8  C           1     -38.206  14.014  55.541  0.00  0.00     0.092 A 
HETATM    9  C           1     -38.827  14.294  56.740  0.00  0.00     0.041 A 
HETATM   10  C           1     -40.153  13.697  56.913  0.00  0.00     0.088 A 
HETATM   11  C           1     -36.962  14.512  55.258  0.00  0.00     0.078 A 
HETATM   12  C           1     -36.295  15.294  56.145  0.00  0.00     0.112 A 
HETATM   13  C           1     -36.882  15.592  57.347  0.00  0.00     0.109 A 
HETATM   14  C           1     -38.126  15.096  57.632  0.00  0.00    -0.003 A 
HETATM   15  O           1     -43.618  12.209  57.565  0.00  0.00     0.000 OA
HETATM   16  C           1     -43.879  10.968  55.242  0.00  0.00     0.025 A 
HETATM   17  C           1     -43.424  11.826  56.249  0.00  0.00     0.077 A 
HETATM   18  C           1     -44.913  11.223  56.809  0.00  0.00    -0.039 A 
HETATM   19  C           1     -46.214  11.393  58.512  0.00  0.00     0.023 A 
HETATM   20  C           1     -46.423   9.983  55.897  0.00  0.00     0.023 A 
HETATM   21  C           1     -42.672  12.578  57.319  0.00  0.00    -0.026 A 
HETATM   22  C           1     -44.231  13.180  56.668  0.00  0.00     0.003 A 
HETATM   23  C           1     -45.875  12.266  56.690  0.00  0.00     0.002 C 
HETATM   24  C           1     -46.427  10.662  57.264  0.00  0.00    -0.014 A 
HETATM   25  C           1     -44.789  10.136  57.747  0.00  0.00     0.002 C 
HETATM   26  C           1     -43.072  10.942  57.769  0.00  0.00     0.002 A 
ENDROOT
BRANCH   2  27
HETATM   27  O           1     -42.408  10.583  52.957  0.00  0.00    -0.314 OA
BRANCH  27  28
HETATM   28  C           1     -42.180  11.139  51.706  0.00  0.00     0.075 A 
HETATM   29  C           1     -41.402  10.483  50.795  0.00  0.00     0.037 A 
HETATM   30  C           1     -41.178  11.023  49.566  0.00  0.00     0.003 A 
HETATM   31  C           1     -41.741  12.221  49.236  0.00  0.00     0.000 A 
HETATM   32  C           1     -42.529  12.877  50.135  0.00  0.00     0.003 A 
HETATM   33  C           1     -42.748  12.339  51.365  0.00  0.00     0.037 A 
ENDBRANCH  27  28
ENDBRANCH   2  27
BRANCH  10  34
HETATM   34  O           1     -40.998  13.797  57.973  0.00  0.00    -0.359 OA
ATOM     35  HO          1     -40.593  14.254  58.701  1.00  0.00     0.218 HD
ENDBRANCH  10  34
BRANCH  14  36
HETATM   36  C           1     -38.765  15.429  58.963  0.00  0.00     0.070 C 
BRANCH  36  37
HETATM   37  C           1     -38.400  14.731  59.998  0.00  0.00    -0.020 C 
BRANCH  37  38
HETATM   38  C           1     -37.928  13.499  60.258  0.00  0.00    -0.091 C 
HETATM   39  C           1     -38.481  12.160  59.843  0.00  0.00     0.042 C 
HETATM   40  C           1     -36.697  13.589  61.062  0.00  0.00     0.042 C 
ENDBRANCH  37  38
ENDBRANCH  36  37
ENDBRANCH  14  36
BRANCH  12  41
HETATM   41  O           1     -35.031  15.786  55.831  0.00  0.00    -0.308 OA
BRANCH  41  42
HETATM   42  C           1     -35.085  16.803  54.887  0.00  0.00     0.076 A 
HETATM   43  C           1     -35.565  18.038  55.226  0.00  0.00     0.037 A 
HETATM   44  C           1     -35.602  19.039  54.304  0.00  0.00     0.003 A 
HETATM   45  C           1     -35.139  18.821  53.041  0.00  0.00     0.000 A 
HETATM   46  C           1     -34.639  17.602  52.695  0.00  0.00     0.003 A 
HETATM   47  C           1     -34.627  16.590  53.604  0.00  0.00     0.037 A 
ENDBRANCH  41  42
ENDBRANCH  12  41
BRANCH  13  48
HETATM   48  O           1     -36.216  16.400  58.268  0.00  0.00    -0.352 OA
HETATM   49  C           1     -35.080  15.826  58.788  0.00  0.00     0.210 C 
ENDBRANCH  13  48
TORSDOF 11
ENDMDL
MODEL 7
REMARK VINA RESULT:      -7.6     23.786     28.626
REMARK  11 active torsions:
REMARK  status: ('A' for Active; 'I' for Inactive)
REMARK    1  A    between atoms: C_2  and  O_31 
REMARK    2  A    between atoms: C_10  and  O_23 
REMARK    3  A    between atoms: C_12  and  O_22 
REMARK    4  A    between atoms: C_13  and  O_20 
REMARK    5  A    between atoms: C_14  and  C_15 
REMARK    6  A    between atoms: C_15  and  C_16 
REMARK    7  A    between atoms: C_16  and  C_17 
REMARK    8  A    between atoms: O_22  and  C_32 
REMARK    9  A    between atoms: C_27  and  C_34 
REMARK   10  A    between atoms: O_31  and  C_33 
REMARK   11  A    between atoms: C_48  and  C_49 
ROOT
HETATM    1  C           1     -27.691  -9.359  55.934  0.00  0.00     0.024 A 
HETATM    2  C           1     -27.829  -9.304  57.172  0.00  0.00     0.066 C 
HETATM    3  C           1     -27.476  -8.286  57.997  0.00  0.00     0.071 C 
HETATM    4  C           1     -26.904  -7.134  57.586  0.00  0.00     0.088 A 
HETATM    5  C           1     -26.683  -6.956  56.289  0.00  0.00     0.016 A 
HETATM    6  C           1     -27.334  -8.397  55.300  0.00  0.00     0.002 A 
HETATM    7  O           1     -26.579  -6.171  58.497  0.00  0.00    -0.309 OA
HETATM    8  C           1     -25.990  -4.984  58.060  0.00  0.00     0.092 A 
HETATM    9  C           1     -25.705  -4.740  56.733  0.00  0.00     0.041 A 
HETATM   10  C           1     -26.072  -5.812  55.806  0.00  0.00     0.088 A 
HETATM   11  C           1     -25.697  -4.059  59.026  0.00  0.00     0.078 A 
HETATM   12  C           1     -25.118  -2.870  58.714  0.00  0.00     0.112 A 
HETATM   13  C           1     -24.820  -2.595  57.405  0.00  0.00     0.109 A 
HETATM   14  C           1     -25.113  -3.518  56.438  0.00  0.00    -0.003 A 
HETATM   15  O           1     -26.980  -8.486  53.222  0.00  0.00     0.000 OA
HETATM   16  C           1     -27.963 -10.259  54.925  0.00  0.00     0.025 A 
HETATM   17  C           1     -27.283  -9.157  54.396  0.00  0.00     0.077 A 
HETATM   18  C           1     -27.659 -10.139  53.058  0.00  0.00    -0.039 A 
HETATM   19  C           1     -27.403 -10.170  50.924  0.00  0.00     0.023 A 
HETATM   20  C           1     -28.539 -12.101  52.888  0.00  0.00     0.023 A 
HETATM   21  C           1     -26.763  -7.802  53.983  0.00  0.00    -0.026 A 
HETATM   22  C           1     -25.847  -9.304  53.636  0.00  0.00     0.003 A 
HETATM   23  C           1     -26.458 -10.777  52.638  0.00  0.00     0.002 C 
HETATM   24  C           1     -27.982 -11.193  51.793  0.00  0.00    -0.014 A 
HETATM   25  C           1     -28.824  -9.709  52.326  0.00  0.00     0.002 C 
HETATM   26  C           1     -28.335  -8.174  53.327  0.00  0.00     0.002 A 
ENDROOT
BRANCH   2  27
HETATM   27  O           1     -28.413 -10.464  57.624  0.00  0.00    -0.314 OA
BRANCH  27  28
HETATM   28  C           1     -27.596 -11.095  58.552  0.00  0.00     0.075 A 
HETATM   29  C           1     -27.986 -11.192  59.857  0.00  0.00     0.037 A 
HETATM   30  C           1     -27.188 -11.811  60.769  0.00  0.00     0.003 A 
HETATM   31  C           1     -25.997 -12.347  60.379  0.00  0.00     0.000 A 
HETATM   32  C           1     -25.604 -12.265  59.075  0.00  0.00     0.003 A 
HETATM   33  C           1     -26.400 -11.642  58.166  0.00  0.00     0.037 A 
ENDBRANCH  27  28
ENDBRANCH   2  27
BRANCH  10  34
HETATM   34  O           1     -25.913  -5.861  54.458  0.00  0.00    -0.359 OA
ATOM     35  HO          1     -25.192  -6.429  54.211  1.00  0.00     0.218 HD
ENDBRANCH  10  34
BRANCH  14  36
HETATM   36  C           1     -24.782  -3.204  54.994  0.00  0.00     0.070 C 
BRANCH  36  37
HETATM   37  C           1     -23.569  -3.440  54.590  0.00  0.00    -0.020 C 
BRANCH  37  38
HETATM   38  C           1     -22.525  -4.207  54.951  0.00  0.00    -0.091 C 
HETATM   39  C           1     -22.380  -5.706  54.894  0.00  0.00     0.042 C 
HETATM   40  C           1     -21.428  -3.363  55.455  0.00  0.00     0.042 C 
ENDBRANCH  37  38
ENDBRANCH  36  37
ENDBRANCH  14  36
BRANCH  12  41
HETATM   41  O           1     -24.830  -1.948  59.717  0.00  0.00    -0.308 OA
BRANCH  41  42
HETATM   42  C           1     -23.925  -2.448  60.645  0.00  0.00     0.076 A 
HETATM   43  C           1     -24.360  -3.208  61.695  0.00  0.00     0.037 A 
HETATM   44  C           1     -23.470  -3.712  62.594  0.00  0.00     0.003 A 
HETATM   45  C           1     -22.136  -3.479  62.439  0.00  0.00     0.000 A 
HETATM   46  C           1     -21.688  -2.741  61.385  0.00  0.00     0.003 A 
HETATM   47  C           1     -22.575  -2.211  60.500  0.00  0.00     0.037 A 
ENDBRANCH  41  42
ENDBRANCH  12  41
BRANCH  13  48
HETATM   48  O           1     -24.218  -1.383  57.066  0.00  0.00    -0.352 OA
HETATM   49  C           1     -25.113  -0.397  56.726  0.00  0.00     0.210 C 
ENDBRANCH  13  48
TORSDOF 11
ENDMDL
MODEL 8
REMARK VINA RESULT:      -7.4     21.346     26.373
REMARK  11 active torsions:
REMARK  status: ('A' for Active; 'I' for Inactive)
REMARK    1  A    between atoms: C_2  and  O_31 
REMARK    2  A    between atoms: C_10  and  O_23 
REMARK    3  A    between atoms: C_12  and  O_22 
REMARK    4  A    between atoms: C_13  and  O_20 
REMARK    5  A    between atoms: C_14  and  C_15 
REMARK    6  A    between atoms: C_15  and  C_16 
REMARK    7  A    between atoms: C_16  and  C_17 
REMARK    8  A    between atoms: O_22  and  C_32 
REMARK    9  A    between atoms: C_27  and  C_34 
REMARK   10  A    between atoms: O_31  and  C_33 
REMARK   11  A    between atoms: C_48  and  C_49 
ROOT
HETATM    1  C           1     -26.359  -5.139  56.423  0.00  0.00     0.024 A 
HETATM    2  C           1     -26.136  -3.958  56.753  0.00  0.00     0.066 C 
HETATM    3  C           1     -25.730  -3.503  57.965  0.00  0.00     0.071 C 
HETATM    4  C           1     -25.494  -4.291  59.036  0.00  0.00     0.088 A 
HETATM    5  C           1     -25.641  -5.604  58.910  0.00  0.00     0.016 A 
HETATM    6  C           1     -26.086  -6.058  57.156  0.00  0.00     0.002 A 
HETATM    7  O           1     -25.094  -3.736  60.216  0.00  0.00    -0.309 OA
HETATM    8  C           1     -24.850  -4.560  61.315  0.00  0.00     0.092 A 
HETATM    9  C           1     -25.009  -5.929  61.268  0.00  0.00     0.041 A 
HETATM   10  C           1     -25.444  -6.464  59.976  0.00  0.00     0.088 A 
HETATM   11  C           1     -24.445  -3.936  62.466  0.00  0.00     0.078 A 
HETATM   12  C           1     -24.185  -4.641  63.598  0.00  0.00     0.112 A 
HETATM   13  C           1     -24.334  -6.003  63.586  0.00  0.00     0.109 A 
HETATM   14  C           1     -24.738  -6.628  62.437  0.00  0.00    -0.003 A 
HETATM   15  O           1     -26.554  -8.058  56.678  0.00  0.00     0.000 OA
HETATM   16  C           1     -26.768  -5.814  55.291  0.00  0.00     0.025 A 
HETATM   17  C           1     -26.655  -6.716  56.355  0.00  0.00     0.077 A 
HETATM   18  C           1     -27.054  -7.665  55.000  0.00  0.00    -0.039 A 
HETATM   19  C           1     -27.413  -9.722  54.489  0.00  0.00     0.023 A 
HETATM   20  C           1     -27.588  -7.164  52.972  0.00  0.00     0.023 A 
HETATM   21  C           1     -26.252  -7.554  57.542  0.00  0.00    -0.026 A 
HETATM   22  C           1     -27.921  -7.596  56.887  0.00  0.00     0.003 A 
HETATM   23  C           1     -28.416  -8.055  55.131  0.00  0.00     0.002 C 
HETATM   24  C           1     -27.534  -8.532  53.647  0.00  0.00    -0.014 A 
HETATM   25  C           1     -25.923  -8.318  54.391  0.00  0.00     0.002 C 
HETATM   26  C           1     -25.293  -7.858  56.119  0.00  0.00     0.002 A 
ENDROOT
BRANCH   2  27
HETATM   27  O           1     -26.366  -3.128  55.681  0.00  0.00    -0.314 OA
BRANCH  27  28
HETATM   28  C           1     -25.200  -2.473  55.310  0.00  0.00     0.075 A 
HETATM   29  C           1     -25.047  -1.142  55.569  0.00  0.00     0.037 A 
HETATM   30  C           1     -23.904  -0.497  55.209  0.00  0.00     0.003 A 
HETATM   31  C           1     -22.900  -1.184  54.593  0.00  0.00     0.000 A 
HETATM   32  C           1     -23.040  -2.518  54.339  0.00  0.00     0.003 A 
HETATM   33  C           1     -24.184  -3.159  54.696  0.00  0.00     0.037 A 
ENDBRANCH  27  28
ENDBRANCH   2  27
BRANCH  10  34
HETATM   34  O           1     -25.688  -7.755  59.630  0.00  0.00    -0.359 OA
ATOM     35  HO          1     -26.599  -7.889  59.396  1.00  0.00     0.218 HD
ENDBRANCH  10  34
BRANCH  14  36
HETATM   36  C           1     -24.897  -8.134  62.434  0.00  0.00     0.070 C 
BRANCH  36  37
HETATM   37  C           1     -26.011  -8.622  62.892  0.00  0.00    -0.020 C 
BRANCH  37  38
HETATM   38  C           1     -26.788  -9.702  62.692  0.00  0.00    -0.091 C 
HETATM   39  C           1     -27.033 -10.477  61.424  0.00  0.00     0.042 C 
HETATM   40  C           1     -27.438 -10.097  63.954  0.00  0.00     0.042 C 
ENDBRANCH  37  38
ENDBRANCH  36  37
ENDBRANCH  14  36
BRANCH  12  41
HETATM   41  O           1     -23.775  -3.982  64.753  0.00  0.00    -0.308 OA
BRANCH  41  42
HETATM   42  C           1     -22.492  -3.462  64.632  0.00  0.00     0.076 A 
HETATM   43  C           1     -22.277  -2.117  64.743  0.00  0.00     0.037 A 
HETATM   44  C           1     -21.017  -1.611  64.642  0.00  0.00     0.003 A 
HETATM   45  C           1     -19.958  -2.448  64.450  0.00  0.00     0.000 A 
HETATM   46  C           1     -20.156  -3.793  64.358  0.00  0.00     0.003 A 
HETATM   47  C           1     -21.416  -4.300  64.430  0.00  0.00     0.037 A 
ENDBRANCH  41  42
ENDBRANCH  12  41
BRANCH  13  48
HETATM   48  O           1     -24.078  -6.743  64.741  0.00  0.00    -0.352 OA
HETATM   49  C           1     -25.045  -6.609  65.709  0.00  0.00     0.210 C 
ENDBRANCH  13  48
TORSDOF 11
ENDMDL
MODEL 9
REMARK VINA RESULT:      -7.4     20.151     25.732
REMARK  11 active torsions:
REMARK  status: ('A' for Active; 'I' for Inactive)
REMARK    1  A    between atoms: C_2  and  O_31 
REMARK    2  A    between atoms: C_10  and  O_23 
REMARK    3  A    between atoms: C_12  and  O_22 
REMARK    4  A    between atoms: C_13  and  O_20 
REMARK    5  A    between atoms: C_14  and  C_15 
REMARK    6  A    between atoms: C_15  and  C_16 
REMARK    7  A    between atoms: C_16  and  C_17 
REMARK    8  A    between atoms: O_22  and  C_32 
REMARK    9  A    between atoms: C_27  and  C_34 
REMARK   10  A    between atoms: O_31  and  C_33 
REMARK   11  A    between atoms: C_48  and  C_49 
ROOT
HETATM    1  C           1     -21.736   1.773  47.072  0.00  0.00     0.024 A 
HETATM    2  C           1     -22.228   2.577  46.256  0.00  0.00     0.066 C 
HETATM    3  C           1     -22.217   3.931  46.323  0.00  0.00     0.071 C 
HETATM    4  C           1     -21.646   4.642  47.320  0.00  0.00     0.088 A 
HETATM    5  C           1     -21.030   3.989  48.299  0.00  0.00     0.016 A 
HETATM    6  C           1     -21.042   2.151  47.984  0.00  0.00     0.002 A 
HETATM    7  O           1     -21.694   6.005  47.300  0.00  0.00    -0.309 OA
HETATM    8  C           1     -21.099   6.728  48.334  0.00  0.00     0.092 A 
HETATM    9  C           1     -20.466   6.120  49.398  0.00  0.00     0.041 A 
HETATM   10  C           1     -20.452   4.656  49.364  0.00  0.00     0.088 A 
HETATM   11  C           1     -21.179   8.092  48.247  0.00  0.00     0.078 A 
HETATM   12  C           1     -20.638   8.894  49.201  0.00  0.00     0.112 A 
HETATM   13  C           1     -20.002   8.324  50.272  0.00  0.00     0.109 A 
HETATM   14  C           1     -19.921   6.960  50.361  0.00  0.00    -0.003 A 
HETATM   15  O           1     -20.288   0.833  49.448  0.00  0.00     0.000 OA
HETATM   16  C           1     -21.632   0.404  47.208  0.00  0.00     0.025 A 
HETATM   17  C           1     -21.099   1.026  48.342  0.00  0.00     0.077 A 
HETATM   18  C           1     -20.821  -0.637  48.568  0.00  0.00    -0.039 A 
HETATM   19  C           1     -19.943  -1.972  50.007  0.00  0.00     0.023 A 
HETATM   20  C           1     -21.422  -2.383  47.454  0.00  0.00     0.023 A 
HETATM   21  C           1     -20.369   1.871  49.356  0.00  0.00    -0.026 A 
HETATM   22  C           1     -21.689   0.758  49.839  0.00  0.00     0.003 A 
HETATM   23  C           1     -21.741  -1.101  49.551  0.00  0.00     0.002 C 
HETATM   24  C           1     -20.656  -2.294  48.772  0.00  0.00    -0.014 A 
HETATM   25  C           1     -19.484  -1.057  48.232  0.00  0.00     0.002 C 
HETATM   26  C           1     -19.321   0.820  48.443  0.00  0.00     0.002 A 
ENDROOT
BRANCH   2  27
HETATM   27  O           1     -22.817   1.884  45.224  0.00  0.00    -0.314 OA
BRANCH  27  28
HETATM   28  C           1     -24.116   2.326  45.016  0.00  0.00     0.075 A 
HETATM   29  C           1     -25.108   1.982  45.889  0.00  0.00     0.037 A 
HETATM   30  C           1     -26.382   2.416  45.690  0.00  0.00     0.003 A 
HETATM   31  C           1     -26.671   3.207  44.618  0.00  0.00     0.000 A 
HETATM   32  C           1     -25.685   3.565  43.746  0.00  0.00     0.003 A 
HETATM   33  C           1     -24.414   3.127  43.944  0.00  0.00     0.037 A 
ENDBRANCH  27  28
ENDBRANCH   2  27
BRANCH  10  34
HETATM   34  O           1     -19.914   3.791  50.264  0.00  0.00    -0.359 OA
ATOM     35  HO          1     -19.894   2.903  49.926  1.00  0.00     0.218 HD
ENDBRANCH  10  34
BRANCH  14  36
HETATM   36  C           1     -19.215   6.339  51.547  0.00  0.00     0.070 C 
BRANCH  36  37
HETATM   37  C           1     -19.885   6.228  52.656  0.00  0.00    -0.020 C 
BRANCH  37  38
HETATM   38  C           1     -21.150   5.986  53.040  0.00  0.00    -0.091 C 
HETATM   39  C           1     -21.906   4.682  53.067  0.00  0.00     0.042 C 
HETATM   40  C           1     -21.793   7.238  53.478  0.00  0.00     0.042 C 
ENDBRANCH  37  38
ENDBRANCH  36  37
ENDBRANCH  14  36
BRANCH  12  41
HETATM   41  O           1     -20.734  10.278  49.088  0.00  0.00    -0.308 OA
BRANCH  41  42
HETATM   42  C           1     -20.189  10.745  47.898  0.00  0.00     0.076 A 
HETATM   43  C           1     -20.966  11.422  47.000  0.00  0.00     0.037 A 
HETATM   44  C           1     -20.427  11.895  45.842  0.00  0.00     0.003 A 
HETATM   45  C           1     -19.102  11.712  45.582  0.00  0.00     0.000 A 
HETATM   46  C           1     -18.311  11.057  46.478  0.00  0.00     0.003 A 
HETATM   47  C           1     -18.852  10.558  47.622  0.00  0.00     0.037 A 
ENDBRANCH  41  42
ENDBRANCH  12  41
BRANCH  13  48
HETATM   48  O           1     -19.447   9.131  51.266  0.00  0.00    -0.352 OA
HETATM   49  C           1     -18.136   9.470  51.035  0.00  0.00     0.210 C 
ENDBRANCH  13  48
TORSDOF 11
ENDMDL
