MODEL 1
REMARK VINA RESULT:      -8.9      0.000      0.000
REMARK WARNING: 32 MAX_TORS EXCEEDED!!!
REMARK  34 active torsions:
REMARK  status: ('A' for Active; 'I' for Inactive)
REMARK    1  A    between atoms: O_1  and  C_25 
REMARK    2  A    between atoms: O_1  and  C_44 
REMARK    3  A    between atoms: O_2  and  C_32 
REMARK    4  A    between atoms: O_3  and  C_35 
REMARK    5  A    between atoms: O_3  and  Pt_111 
REMARK    6  A    between atoms: O_4  and  C_41 
REMARK    7  A    between atoms: O_6  and  C_45 
REMARK    8  A    between atoms: O_7  and  C_46 
REMARK    9  A    between atoms: O_7  and  C_50 
REMARK   10  A    between atoms: O_8  and  C_48 
REMARK   11  A    between atoms: O_10  and  C_51 
REMARK   12  A    between atoms: O_11  and  C_52 
REMARK   13  A    between atoms: O_12  and  C_54 
REMARK   14  A    between atoms: O_13  and  C_55 
REMARK   15  A    between atoms: C_20  and  C_35 
REMARK   16  A    between atoms: C_26  and  C_41 
REMARK   17  A    between atoms: C_53  and  C_55 
REMARK   18  A    between atoms: O_56  and  C_80 
REMARK   19  A    between atoms: O_56  and  C_99 
REMARK   20  A    between atoms: O_57  and  C_87 
REMARK   21  A    between atoms: O_58  and  C_90 
REMARK   22  A    between atoms: O_58  and  Pt_111 
REMARK   23  A    between atoms: O_59  and  C_96 
REMARK   24  A    between atoms: O_61  and  C_100 
REMARK   25  A    between atoms: O_62  and  C_101 
REMARK   26  A    between atoms: O_62  and  C_105 
REMARK   27  A    between atoms: O_63  and  C_103 
REMARK   28  A    between atoms: O_65  and  C_106 
REMARK   29  A    between atoms: O_66  and  C_107 
REMARK   30  A    between atoms: O_67  and  C_109 
REMARK   31  A    between atoms: O_68  and  C_110 
REMARK   32  A    between atoms: C_75  and  C_90 
REMARK   33  A    between atoms: C_81  and  C_96 
REMARK   34  A    between atoms: C_108  and  C_110 
ROOT
HETATM    1  Pt          1     -20.211  -3.427  58.102  0.00  0.00     0.089 P 
HETATM    2  Cl          1     -19.411  -4.295  56.161  0.00  0.00     0.098 C 
HETATM    3  Cl          1     -19.983  -4.991  59.737  0.00  0.00     0.098 C 
ENDROOT
BRANCH   1   4
HETATM    4  O           1     -22.077  -3.030  57.823  0.00  0.00    -0.345 OA
BRANCH   4   5
HETATM    5  C           1     -22.382  -2.058  56.851  0.00  0.00     0.187 C 
BRANCH   5   6
HETATM    6  C           1     -23.853  -2.121  56.366  0.00  0.00     0.009 C 
HETATM    7  C           1     -24.376  -3.612  56.408  0.00  0.00     0.007 C 
HETATM    8  C           1     -24.211  -4.458  55.107  0.00  0.00    -0.032 C 
HETATM    9  C           1     -25.789  -3.751  57.027  0.00  0.00     0.007 C 
HETATM   10  C           1     -24.748  -5.927  55.254  0.00  0.00     0.026 C 
HETATM   11  C           1     -24.899  -3.721  53.935  0.00  0.00     0.012 C 
HETATM   12  C           1     -22.692  -4.620  54.775  0.00  0.00     0.016 C 
HETATM   13  C           1     -25.932  -6.206  56.220  0.00  0.00    -0.025 C 
HETATM   14  C           1     -24.813  -6.714  53.959  0.00  0.00    -0.020 C 
HETATM   15  C           1     -26.905  -7.291  55.644  0.00  0.00    -0.006 C 
HETATM   16  C           1     -26.661  -4.873  56.463  0.00  0.00     0.011 C 
HETATM   17  C           1     -25.366  -6.695  57.576  0.00  0.00     0.017 C 
HETATM   18  C           1     -26.180  -8.386  54.858  0.00  0.00    -0.046 C 
HETATM   19  C           1     -27.936  -7.870  56.643  0.00  0.00     0.047 C 
HETATM   20  C           1     -27.830  -6.660  54.545  0.00  0.00     0.021 C 
HETATM   21  C           1     -26.468  -9.698  55.020  0.00  0.00    -0.059 C 
HETATM   22  C           1     -25.385  -7.926  53.876  0.00  0.00     0.004 C 
HETATM   23  C           1     -27.162 -10.274  56.237  0.00  0.00     0.031 C 
HETATM   24  C           1     -26.191 -10.788  53.995  0.00  0.00     0.044 C 
HETATM   25  C           1     -27.512  -9.186  57.266  0.00  0.00     0.134 C 
HETATM   26  C           1     -28.389 -10.941  55.604  0.00  0.00     0.020 C 
HETATM   27  C           1     -28.111 -11.771  54.319  0.00  0.00     0.010 C 
HETATM   28  C           1     -27.504 -10.959  53.040  0.00  0.00    -0.044 C 
HETATM   29  C           1     -26.421 -11.036  51.851  0.00  0.00     0.015 C 
HETATM   30  C           1     -28.192 -12.162  52.176  0.00  0.00     0.015 C 
HETATM   31  C           1     -25.125  -2.221  54.186  0.00  0.00     0.034 C 
HETATM   32  C           1     -23.939  -1.567  54.910  0.00  0.00     0.135 C 
HETATM   33  C           1     -24.632  -1.198  57.340  0.00  0.00     0.020 C 
BRANCH  23  34
HETATM   34  C           1     -26.234 -11.243  57.016  0.00  0.00     0.180 C 
BRANCH  34  35
HETATM   35  O           1     -26.899 -12.127  57.892  0.00  0.00    -0.400 OA
HETATM   36  H           1     -26.247 -12.653  58.363  0.00  0.00     0.209 HD
ENDBRANCH  34  35
ENDBRANCH  23  34
BRANCH  25  37
HETATM   37  O           1     -28.538  -9.633  58.124  0.00  0.00    -0.394 OA
HETATM   38  H           1     -28.541  -9.116  58.932  0.00  0.00     0.210 HD
ENDBRANCH  25  37
BRANCH  32  39
HETATM   39  O           1     -24.097  -0.173  54.785  0.00  0.00    -0.352 OA
BRANCH  39  40
HETATM   40  C           1     -23.074   0.615  54.184  0.00  0.00     0.291 C 
HETATM   41  O           1     -22.833   0.011  52.934  0.00  0.00    -0.351 OA
HETATM   42  C           1     -21.717   0.535  52.271  0.00  0.00     0.152 C 
HETATM   43  C           1     -21.909   2.019  51.982  0.00  0.00     0.178 C 
HETATM   44  C           1     -21.492  -0.270  50.990  0.00  0.00     0.042 C 
HETATM   45  C           1     -22.172   2.794  53.266  0.00  0.00     0.189 C 
HETATM   46  C           1     -23.279   2.112  54.064  0.00  0.00     0.205 C 
BRANCH  43  47
HETATM   47  O           1     -22.988   2.192  51.096  0.00  0.00    -0.390 OA
HETATM   48  H           1     -23.810   2.321  51.578  0.00  0.00     0.210 HD
ENDBRANCH  43  47
BRANCH  45  49
HETATM   49  O           1     -22.608   4.109  53.046  0.00  0.00    -0.348 OA
BRANCH  49  50
HETATM   50  C           1     -21.600   5.057  52.762  0.00  0.00     0.292 C 
HETATM   51  O           1     -21.466   5.021  51.355  0.00  0.00    -0.348 OA
HETATM   52  C           1     -21.089   6.216  50.725  0.00  0.00     0.179 C 
HETATM   53  C           1     -20.237   7.071  51.649  0.00  0.00     0.180 C 
HETATM   54  C           1     -21.038   7.483  52.873  0.00  0.00     0.183 C 
HETATM   55  C           1     -22.039   6.411  53.272  0.00  0.00     0.204 C 
BRANCH  52  56
HETATM   56  C           1     -20.392   5.808  49.432  0.00  0.00     0.198 C 
BRANCH  56  57
HETATM   57  O           1     -20.488   6.834  48.468  0.00  0.00    -0.398 OA
HETATM   58  H           1     -19.947   7.584  48.724  0.00  0.00     0.209 HD
ENDBRANCH  56  57
ENDBRANCH  52  56
BRANCH  53  59
HETATM   59  O           1     -19.804   8.252  51.017  0.00  0.00    -0.390 OA
HETATM   60  H           1     -20.068   8.275  50.097  0.00  0.00     0.210 HD
ENDBRANCH  53  59
BRANCH  54  61
HETATM   61  O           1     -20.140   7.731  53.927  0.00  0.00    -0.390 OA
HETATM   62  H           1     -19.807   6.890  54.253  0.00  0.00     0.210 HD
ENDBRANCH  54  61
BRANCH  55  63
HETATM   63  O           1     -23.307   6.724  52.743  0.00  0.00    -0.388 OA
HETATM   64  H           1     -23.234   6.904  51.803  0.00  0.00     0.210 HD
ENDBRANCH  55  63
ENDBRANCH  49  50
ENDBRANCH  45  49
BRANCH  46  65
HETATM   65  O           1     -23.317   2.707  55.339  0.00  0.00    -0.388 OA
HETATM   66  H           1     -22.495   3.185  55.474  0.00  0.00     0.210 HD
ENDBRANCH  46  65
ENDBRANCH  39  40
ENDBRANCH  32  39
ENDBRANCH   5   6
ENDBRANCH   4   5
ENDBRANCH   1   4
BRANCH   1  67
HETATM   67  O           1     -19.326  -1.781  58.577  0.00  0.00    -0.345 OA
BRANCH  67  68
HETATM   68  C           1     -17.912  -1.706  58.604  0.00  0.00     0.187 C 
BRANCH  68  69
HETATM   69  C           1     -17.355  -0.455  59.354  0.00  0.00     0.009 C 
HETATM   70  C           1     -17.013   0.714  58.343  0.00  0.00     0.007 C 
HETATM   71  C           1     -16.889   2.199  58.839  0.00  0.00    -0.032 C 
HETATM   72  C           1     -17.773   0.708  57.007  0.00  0.00     0.007 C 
HETATM   73  C           1     -17.243   3.324  57.765  0.00  0.00     0.026 C 
HETATM   74  C           1     -17.838   2.468  60.041  0.00  0.00     0.012 C 
HETATM   75  C           1     -15.426   2.394  59.330  0.00  0.00     0.016 C 
HETATM   76  C           1     -17.092   3.062  56.237  0.00  0.00    -0.025 C 
HETATM   77  C           1     -16.583   4.624  58.172  0.00  0.00    -0.020 C 
HETATM   78  C           1     -15.915   3.886  55.590  0.00  0.00    -0.006 C 
HETATM   79  C           1     -16.967   1.545  56.002  0.00  0.00     0.011 C 
HETATM   80  C           1     -18.441   3.426  55.539  0.00  0.00     0.017 C 
HETATM   81  C           1     -14.869   4.373  56.603  0.00  0.00    -0.046 C 
HETATM   82  C           1     -15.305   3.227  54.326  0.00  0.00     0.047 C 
HETATM   83  C           1     -16.428   5.275  55.066  0.00  0.00     0.021 C 
HETATM   84  C           1     -13.548   4.415  56.318  0.00  0.00    -0.059 C 
HETATM   85  C           1     -15.373   4.958  57.706  0.00  0.00     0.004 C 
HETATM   86  C           1     -12.944   3.700  55.114  0.00  0.00     0.031 C 
HETATM   87  C           1     -12.495   5.104  57.170  0.00  0.00     0.044 C 
HETATM   88  C           1     -13.940   3.788  53.945  0.00  0.00     0.134 C 
HETATM   89  C           1     -11.615   4.396  54.713  0.00  0.00     0.020 C 
HETATM   90  C           1     -11.692   5.918  54.907  0.00  0.00     0.010 C 
HETATM   91  C           1     -11.900   6.300  56.392  0.00  0.00    -0.044 C 
HETATM   92  C           1     -12.859   7.505  56.492  0.00  0.00     0.015 C 
HETATM   93  C           1     -10.550   6.705  57.021  0.00  0.00     0.015 C 
HETATM   94  C           1     -17.940   1.353  61.085  0.00  0.00     0.034 C 
HETATM   95  C           1     -18.378   0.071  60.388  0.00  0.00     0.135 C 
HETATM   96  C           1     -16.022  -0.939  59.988  0.00  0.00     0.020 C 
BRANCH  86  97
HETATM   97  C           1     -12.675   2.225  55.489  0.00  0.00     0.180 C 
BRANCH  97  98
HETATM   98  O           1     -11.671   1.647  54.683  0.00  0.00    -0.400 OA
HETATM   99  H           1     -11.004   1.215  55.226  0.00  0.00     0.209 HD
ENDBRANCH  97  98
ENDBRANCH  86  97
BRANCH  88 100
HETATM  100  O           1     -13.459   3.081  52.824  0.00  0.00    -0.394 OA
HETATM  101  H           1     -13.397   2.147  53.032  0.00  0.00     0.210 HD
ENDBRANCH  88 100
BRANCH  95 102
HETATM  102  O           1     -18.931  -0.918  61.218  0.00  0.00    -0.352 OA
BRANCH 102 103
HETATM  103  C           1     -20.115  -0.669  61.953  0.00  0.00     0.291 C 
HETATM  104  O           1     -19.731  -0.577  63.296  0.00  0.00    -0.351 OA
HETATM  105  C           1     -20.795  -0.521  64.195  0.00  0.00     0.152 C 
HETATM  106  C           1     -21.538  -1.850  64.161  0.00  0.00     0.178 C 
HETATM  107  C           1     -20.197  -0.224  65.573  0.00  0.00     0.042 C 
HETATM  108  C           1     -22.114  -2.082  62.769  0.00  0.00     0.189 C 
HETATM  109  C           1     -21.003  -1.880  61.745  0.00  0.00     0.205 C 
BRANCH 106 110
HETATM  110  O           1     -22.570  -1.815  65.118  0.00  0.00    -0.390 OA
HETATM  111  H           1     -23.220  -2.494  64.923  0.00  0.00     0.210 HD
ENDBRANCH 106 110
BRANCH 108 112
HETATM  112  O           1     -22.570  -3.383  62.506  0.00  0.00    -0.348 OA
BRANCH 112 113
HETATM  113  C           1     -23.954  -3.592  62.368  0.00  0.00     0.292 C 
HETATM  114  O           1     -24.437  -4.060  63.613  0.00  0.00    -0.348 OA
HETATM  115  C           1     -23.863  -5.263  64.063  0.00  0.00     0.179 C 
HETATM  116  C           1     -24.070  -6.383  63.052  0.00  0.00     0.180 C 
HETATM  117  C           1     -23.583  -5.948  61.684  0.00  0.00     0.183 C 
HETATM  118  C           1     -24.230  -4.636  61.307  0.00  0.00     0.204 C 
BRANCH 115 119
HETATM  119  C           1     -24.453  -5.567  65.434  0.00  0.00     0.198 C 
BRANCH 119 120
HETATM  120  O           1     -25.815  -5.195  65.465  0.00  0.00    -0.398 OA
HETATM  121  H           1     -26.261  -5.450  64.650  0.00  0.00     0.209 HD
ENDBRANCH 119 120
ENDBRANCH 115 119
BRANCH 116 122
HETATM  122  O           1     -23.335  -7.536  63.391  0.00  0.00    -0.390 OA
HETATM  123  H           1     -23.360  -8.203  62.703  0.00  0.00     0.210 HD
ENDBRANCH 116 122
BRANCH 117 124
HETATM  124  O           1     -23.919  -6.929  60.737  0.00  0.00    -0.390 OA
HETATM  125  H           1     -24.872  -6.915  60.618  0.00  0.00     0.210 HD
ENDBRANCH 117 124
BRANCH 118 126
HETATM  126  O           1     -23.727  -4.229  60.059  0.00  0.00    -0.388 OA
HETATM  127  H           1     -22.994  -3.627  60.218  0.00  0.00     0.210 HD
ENDBRANCH 118 126
ENDBRANCH 112 113
ENDBRANCH 108 112
BRANCH 109 128
HETATM  128  O           1     -21.593  -1.836  60.468  0.00  0.00    -0.388 OA
HETATM  129  H           1     -20.893  -1.737  59.816  0.00  0.00     0.210 HD
ENDBRANCH 109 128
ENDBRANCH 102 103
ENDBRANCH  95 102
ENDBRANCH  68  69
ENDBRANCH  67  68
ENDBRANCH   1  67
TORSDOF 34
ENDMDL
MODEL 2
REMARK VINA RESULT:      -8.4      2.243      9.485
REMARK WARNING: 32 MAX_TORS EXCEEDED!!!
REMARK  34 active torsions:
REMARK  status: ('A' for Active; 'I' for Inactive)
REMARK    1  A    between atoms: O_1  and  C_25 
REMARK    2  A    between atoms: O_1  and  C_44 
REMARK    3  A    between atoms: O_2  and  C_32 
REMARK    4  A    between atoms: O_3  and  C_35 
REMARK    5  A    between atoms: O_3  and  Pt_111 
REMARK    6  A    between atoms: O_4  and  C_41 
REMARK    7  A    between atoms: O_6  and  C_45 
REMARK    8  A    between atoms: O_7  and  C_46 
REMARK    9  A    between atoms: O_7  and  C_50 
REMARK   10  A    between atoms: O_8  and  C_48 
REMARK   11  A    between atoms: O_10  and  C_51 
REMARK   12  A    between atoms: O_11  and  C_52 
REMARK   13  A    between atoms: O_12  and  C_54 
REMARK   14  A    between atoms: O_13  and  C_55 
REMARK   15  A    between atoms: C_20  and  C_35 
REMARK   16  A    between atoms: C_26  and  C_41 
REMARK   17  A    between atoms: C_53  and  C_55 
REMARK   18  A    between atoms: O_56  and  C_80 
REMARK   19  A    between atoms: O_56  and  C_99 
REMARK   20  A    between atoms: O_57  and  C_87 
REMARK   21  A    between atoms: O_58  and  C_90 
REMARK   22  A    between atoms: O_58  and  Pt_111 
REMARK   23  A    between atoms: O_59  and  C_96 
REMARK   24  A    between atoms: O_61  and  C_100 
REMARK   25  A    between atoms: O_62  and  C_101 
REMARK   26  A    between atoms: O_62  and  C_105 
REMARK   27  A    between atoms: O_63  and  C_103 
REMARK   28  A    between atoms: O_65  and  C_106 
REMARK   29  A    between atoms: O_66  and  C_107 
REMARK   30  A    between atoms: O_67  and  C_109 
REMARK   31  A    between atoms: O_68  and  C_110 
REMARK   32  A    between atoms: C_75  and  C_90 
REMARK   33  A    between atoms: C_81  and  C_96 
REMARK   34  A    between atoms: C_108  and  C_110 
ROOT
HETATM    1  Pt          1     -20.292  -0.786  56.706  0.00  0.00     0.089 P 
HETATM    2  Cl          1     -19.684   1.237  55.869  0.00  0.00     0.098 C 
HETATM    3  Cl          1     -19.642  -2.396  55.238  0.00  0.00     0.098 C 
ENDROOT
BRANCH   1   4
HETATM    4  O           1     -22.213  -0.780  56.873  0.00  0.00    -0.345 OA
BRANCH   4   5
HETATM    5  C           1     -22.838  -2.025  57.072  0.00  0.00     0.187 C 
BRANCH   5   6
HETATM    6  C           1     -24.232  -2.123  56.403  0.00  0.00     0.009 C 
HETATM    7  C           1     -24.726  -3.625  56.393  0.00  0.00     0.007 C 
HETATM    8  C           1     -24.378  -4.476  55.131  0.00  0.00    -0.032 C 
HETATM    9  C           1     -26.203  -3.790  56.827  0.00  0.00     0.007 C 
HETATM   10  C           1     -24.899  -5.955  55.222  0.00  0.00     0.026 C 
HETATM   11  C           1     -24.926  -3.762  53.874  0.00  0.00     0.012 C 
HETATM   12  C           1     -22.826  -4.607  54.997  0.00  0.00     0.016 C 
HETATM   13  C           1     -26.191  -6.253  56.031  0.00  0.00    -0.025 C 
HETATM   14  C           1     -24.781  -6.752  53.937  0.00  0.00    -0.020 C 
HETATM   15  C           1     -27.060  -7.362  55.346  0.00  0.00    -0.006 C 
HETATM   16  C           1     -26.973  -4.934  56.166  0.00  0.00     0.011 C 
HETATM   17  C           1     -25.793  -6.720  57.453  0.00  0.00     0.017 C 
HETATM   18  C           1     -26.218  -8.447  54.669  0.00  0.00    -0.046 C 
HETATM   19  C           1     -28.198  -7.957  56.210  0.00  0.00     0.047 C 
HETATM   20  C           1     -27.849  -6.759  54.131  0.00  0.00     0.021 C 
HETATM   21  C           1     -26.497  -9.764  54.805  0.00  0.00    -0.059 C 
HETATM   22  C           1     -25.314  -7.976  53.792  0.00  0.00     0.004 C 
HETATM   23  C           1     -27.329 -10.347  55.929  0.00  0.00     0.031 C 
HETATM   24  C           1     -26.069 -10.854  53.835  0.00  0.00     0.044 C 
HETATM   25  C           1     -27.830  -9.259  56.894  0.00  0.00     0.134 C 
HETATM   26  C           1     -28.451 -11.043  55.150  0.00  0.00     0.020 C 
HETATM   27  C           1     -27.994 -11.876  53.919  0.00  0.00     0.010 C 
HETATM   28  C           1     -27.245 -11.059  52.720  0.00  0.00    -0.044 C 
HETATM   29  C           1     -26.017 -11.121  51.681  0.00  0.00     0.015 C 
HETATM   30  C           1     -27.791 -12.283  51.787  0.00  0.00     0.015 C 
HETATM   31  C           1     -25.212  -2.265  54.080  0.00  0.00     0.034 C 
HETATM   32  C           1     -24.142  -1.580  54.943  0.00  0.00     0.135 C 
HETATM   33  C           1     -25.149  -1.210  57.262  0.00  0.00     0.020 C 
BRANCH  23  34
HETATM   34  C           1     -26.489 -11.290  56.829  0.00  0.00     0.180 C 
BRANCH  34  35
HETATM   35  O           1     -26.078 -10.729  58.057  0.00  0.00    -0.400 OA
HETATM   36  H           1     -26.502  -9.874  58.171  0.00  0.00     0.209 HD
ENDBRANCH  34  35
ENDBRANCH  23  34
BRANCH  25  37
HETATM   37  O           1     -28.948  -9.723  57.618  0.00  0.00    -0.394 OA
HETATM   38  H           1     -28.917  -9.396  58.520  0.00  0.00     0.210 HD
ENDBRANCH  25  37
BRANCH  32  39
HETATM   39  O           1     -24.312  -0.191  54.786  0.00  0.00    -0.352 OA
BRANCH  39  40
HETATM   40  C           1     -23.288   0.594  54.182  0.00  0.00     0.291 C 
HETATM   41  O           1     -23.100   0.029  52.905  0.00  0.00    -0.351 OA
HETATM   42  C           1     -21.991   0.550  52.227  0.00  0.00     0.152 C 
HETATM   43  C           1     -22.155   2.047  51.995  0.00  0.00     0.178 C 
HETATM   44  C           1     -21.824  -0.214  50.912  0.00  0.00     0.042 C 
HETATM   45  C           1     -22.362   2.782  53.313  0.00  0.00     0.189 C 
HETATM   46  C           1     -23.461   2.098  54.120  0.00  0.00     0.205 C 
BRANCH  43  47
HETATM   47  O           1     -23.256   2.277  51.150  0.00  0.00    -0.390 OA
HETATM   48  H           1     -23.850   1.520  51.146  0.00  0.00     0.210 HD
ENDBRANCH  43  47
BRANCH  45  49
HETATM   49  O           1     -22.772   4.114  53.152  0.00  0.00    -0.348 OA
BRANCH  49  50
HETATM   50  C           1     -21.894   5.098  53.657  0.00  0.00     0.292 C 
HETATM   51  O           1     -20.663   4.423  53.826  0.00  0.00    -0.348 OA
HETATM   52  C           1     -19.497   5.184  53.664  0.00  0.00     0.179 C 
HETATM   53  C           1     -19.739   6.636  54.041  0.00  0.00     0.180 C 
HETATM   54  C           1     -20.771   7.256  53.112  0.00  0.00     0.183 C 
HETATM   55  C           1     -21.804   6.236  52.665  0.00  0.00     0.204 C 
BRANCH  52  56
HETATM   56  C           1     -18.424   4.493  54.498  0.00  0.00     0.198 C 
BRANCH  56  57
HETATM   57  O           1     -18.138   5.239  55.661  0.00  0.00    -0.398 OA
HETATM   58  H           1     -17.444   4.813  56.168  0.00  0.00     0.209 HD
ENDBRANCH  56  57
ENDBRANCH  52  56
BRANCH  53  59
HETATM   59  O           1     -18.566   7.407  53.935  0.00  0.00    -0.390 OA
HETATM   60  H           1     -17.852   7.031  54.450  0.00  0.00     0.210 HD
ENDBRANCH  53  59
BRANCH  54  61
HETATM   61  O           1     -21.395   8.319  53.791  0.00  0.00    -0.390 OA
HETATM   62  H           1     -21.852   8.869  53.149  0.00  0.00     0.210 HD
ENDBRANCH  54  61
BRANCH  55  63
HETATM   63  O           1     -21.452   5.727  51.398  0.00  0.00    -0.388 OA
HETATM   64  H           1     -20.520   5.499  51.384  0.00  0.00     0.210 HD
ENDBRANCH  55  63
ENDBRANCH  49  50
ENDBRANCH  45  49
BRANCH  46  65
HETATM   65  O           1     -23.446   2.649  55.416  0.00  0.00    -0.388 OA
HETATM   66  H           1     -22.931   2.070  55.985  0.00  0.00     0.210 HD
ENDBRANCH  46  65
ENDBRANCH  39  40
ENDBRANCH  32  39
ENDBRANCH   5   6
ENDBRANCH   4   5
ENDBRANCH   1   4
BRANCH   1  67
HETATM   67  O           1     -19.552  -1.094  58.459  0.00  0.00    -0.345 OA
BRANCH  67  68
HETATM   68  C           1     -19.313  -2.413  58.918  0.00  0.00     0.187 C 
BRANCH  68  69
HETATM   69  C           1     -19.558  -2.610  60.446  0.00  0.00     0.009 C 
HETATM   70  C           1     -20.079  -4.072  60.759  0.00  0.00     0.007 C 
HETATM   71  C           1     -19.962  -4.679  62.203  0.00  0.00    -0.032 C 
HETATM   72  C           1     -19.712  -5.163  59.741  0.00  0.00     0.007 C 
HETATM   73  C           1     -19.834  -6.267  62.284  0.00  0.00     0.026 C 
HETATM   74  C           1     -18.706  -4.130  62.940  0.00  0.00     0.012 C 
HETATM   75  C           1     -21.219  -4.219  62.995  0.00  0.00     0.016 C 
HETATM   76  C           1     -20.411  -7.183  61.165  0.00  0.00    -0.025 C 
HETATM   77  C           1     -20.268  -6.730  63.659  0.00  0.00    -0.020 C 
HETATM   78  C           1     -21.660  -8.018  61.642  0.00  0.00    -0.006 C 
HETATM   79  C           1     -20.700  -6.326  59.919  0.00  0.00     0.011 C 
HETATM   80  C           1     -19.280  -8.148  60.686  0.00  0.00     0.017 C 
HETATM   81  C           1     -22.356  -7.437  62.882  0.00  0.00    -0.046 C 
HETATM   82  C           1     -22.633  -8.405  60.500  0.00  0.00     0.047 C 
HETATM   83  C           1     -21.213  -9.405  62.228  0.00  0.00     0.021 C 
HETATM   84  C           1     -23.699  -7.465  63.039  0.00  0.00    -0.059 C 
HETATM   85  C           1     -21.533  -7.101  63.893  0.00  0.00     0.004 C 
HETATM   86  C           1     -24.654  -7.772  61.890  0.00  0.00     0.031 C 
HETATM   87  C           1     -24.431  -7.135  64.328  0.00  0.00     0.044 C 
HETATM   88  C           1     -24.008  -8.841  60.992  0.00  0.00     0.134 C 
HETATM   89  C           1     -25.990  -8.317  62.462  0.00  0.00     0.020 C 
HETATM   90  C           1     -25.758  -9.201  63.698  0.00  0.00     0.010 C 
HETATM   91  C           1     -25.131  -8.404  64.867  0.00  0.00    -0.044 C 
HETATM   92  C           1     -24.100  -9.285  65.604  0.00  0.00     0.015 C 
HETATM   93  C           1     -26.229  -8.002  65.873  0.00  0.00     0.015 C 
HETATM   94  C           1     -18.403  -2.643  62.743  0.00  0.00     0.034 C 
HETATM   95  C           1     -18.259  -2.368  61.251  0.00  0.00     0.135 C 
HETATM   96  C           1     -20.699  -1.615  60.792  0.00  0.00     0.020 C 
BRANCH  86  97
HETATM   97  C           1     -24.913  -6.475  61.092  0.00  0.00     0.180 C 
BRANCH  97  98
HETATM   98  O           1     -26.220  -5.981  61.289  0.00  0.00    -0.400 OA
HETATM   99  H           1     -26.227  -5.291  61.959  0.00  0.00     0.209 HD
ENDBRANCH  97  98
ENDBRANCH  86  97
BRANCH  88 100
HETATM  100  O           1     -24.822  -9.113  59.874  0.00  0.00    -0.394 OA
HETATM  101  H           1     -24.613  -9.980  59.523  0.00  0.00     0.210 HD
ENDBRANCH  88 100
BRANCH  95 102
HETATM  102  O           1     -17.572  -1.191  60.909  0.00  0.00    -0.352 OA
BRANCH 102 103
HETATM  103  C           1     -16.362  -1.245  60.177  0.00  0.00     0.291 C 
HETATM  104  O           1     -15.354  -1.536  61.104  0.00  0.00    -0.351 OA
HETATM  105  C           1     -14.060  -1.443  60.595  0.00  0.00     0.152 C 
HETATM  106  C           1     -13.772   0.012  60.249  0.00  0.00     0.178 C 
HETATM  107  C           1     -13.117  -1.982  61.674  0.00  0.00     0.042 C 
HETATM  108  C           1     -14.735   0.485  59.167  0.00  0.00     0.189 C 
HETATM  109  C           1     -16.156   0.142  59.600  0.00  0.00     0.205 C 
BRANCH 106 110
HETATM  110  O           1     -12.441   0.114  59.798  0.00  0.00    -0.390 OA
HETATM  111  H           1     -12.280   0.995  59.453  0.00  0.00     0.210 HD
ENDBRANCH 106 110
BRANCH 108 112
HETATM  112  O           1     -14.784   1.872  58.956  0.00  0.00    -0.348 OA
BRANCH 112 113
HETATM  113  C           1     -14.403   2.370  57.697  0.00  0.00     0.292 C 
HETATM  114  O           1     -13.101   2.908  57.831  0.00  0.00    -0.348 OA
HETATM  115  C           1     -12.980   3.956  58.762  0.00  0.00     0.179 C 
HETATM  116  C           1     -13.910   5.111  58.414  0.00  0.00     0.180 C 
HETATM  117  C           1     -15.329   4.606  58.243  0.00  0.00     0.183 C 
HETATM  118  C           1     -15.347   3.467  57.252  0.00  0.00     0.204 C 
BRANCH 115 119
HETATM  119  C           1     -11.512   4.355  58.815  0.00  0.00     0.198 C 
BRANCH 119 120
HETATM  120  O           1     -11.333   5.616  58.205  0.00  0.00    -0.398 OA
HETATM  121  H           1     -11.449   6.327  58.844  0.00  0.00     0.209 HD
ENDBRANCH 119 120
ENDBRANCH 115 119
BRANCH 116 122
HETATM  122  O           1     -13.949   6.078  59.439  0.00  0.00    -0.390 OA
HETATM  123  H           1     -14.789   6.090  59.900  0.00  0.00     0.210 HD
ENDBRANCH 116 122
BRANCH 117 124
HETATM  124  O           1     -16.142   5.651  57.776  0.00  0.00    -0.390 OA
HETATM  125  H           1     -15.591   6.430  57.663  0.00  0.00     0.210 HD
ENDBRANCH 117 124
BRANCH 118 126
HETATM  126  O           1     -16.663   2.983  57.147  0.00  0.00    -0.388 OA
HETATM  127  H           1     -16.962   3.133  56.245  0.00  0.00     0.210 HD
ENDBRANCH 118 126
ENDBRANCH 112 113
ENDBRANCH 108 112
BRANCH 109 128
HETATM  128  O           1     -17.005   0.339  58.495  0.00  0.00    -0.388 OA
HETATM  129  H           1     -17.260   1.266  58.473  0.00  0.00     0.210 HD
ENDBRANCH 109 128
ENDBRANCH 102 103
ENDBRANCH  95 102
ENDBRANCH  68  69
ENDBRANCH  67  68
ENDBRANCH   1  67
TORSDOF 34
ENDMDL
MODEL 3
REMARK VINA RESULT:      -8.3     20.851     26.343
REMARK WARNING: 32 MAX_TORS EXCEEDED!!!
REMARK  34 active torsions:
REMARK  status: ('A' for Active; 'I' for Inactive)
REMARK    1  A    between atoms: O_1  and  C_25 
REMARK    2  A    between atoms: O_1  and  C_44 
REMARK    3  A    between atoms: O_2  and  C_32 
REMARK    4  A    between atoms: O_3  and  C_35 
REMARK    5  A    between atoms: O_3  and  Pt_111 
REMARK    6  A    between atoms: O_4  and  C_41 
REMARK    7  A    between atoms: O_6  and  C_45 
REMARK    8  A    between atoms: O_7  and  C_46 
REMARK    9  A    between atoms: O_7  and  C_50 
REMARK   10  A    between atoms: O_8  and  C_48 
REMARK   11  A    between atoms: O_10  and  C_51 
REMARK   12  A    between atoms: O_11  and  C_52 
REMARK   13  A    between atoms: O_12  and  C_54 
REMARK   14  A    between atoms: O_13  and  C_55 
REMARK   15  A    between atoms: C_20  and  C_35 
REMARK   16  A    between atoms: C_26  and  C_41 
REMARK   17  A    between atoms: C_53  and  C_55 
REMARK   18  A    between atoms: O_56  and  C_80 
REMARK   19  A    between atoms: O_56  and  C_99 
REMARK   20  A    between atoms: O_57  and  C_87 
REMARK   21  A    between atoms: O_58  and  C_90 
REMARK   22  A    between atoms: O_58  and  Pt_111 
REMARK   23  A    between atoms: O_59  and  C_96 
REMARK   24  A    between atoms: O_61  and  C_100 
REMARK   25  A    between atoms: O_62  and  C_101 
REMARK   26  A    between atoms: O_62  and  C_105 
REMARK   27  A    between atoms: O_63  and  C_103 
REMARK   28  A    between atoms: O_65  and  C_106 
REMARK   29  A    between atoms: O_66  and  C_107 
REMARK   30  A    between atoms: O_67  and  C_109 
REMARK   31  A    between atoms: O_68  and  C_110 
REMARK   32  A    between atoms: C_75  and  C_90 
REMARK   33  A    between atoms: C_81  and  C_96 
REMARK   34  A    between atoms: C_108  and  C_110 
ROOT
HETATM    1  Pt          1     -41.828  14.422  61.841  0.00  0.00     0.089 P 
HETATM    2  Cl          1     -43.723  13.917  62.990  0.00  0.00     0.098 C 
HETATM    3  Cl          1     -42.381  14.773  59.663  0.00  0.00     0.098 C 
ENDROOT
BRANCH   1   4
HETATM    4  O           1     -40.651  12.902  61.988  0.00  0.00    -0.345 OA
BRANCH   4   5
HETATM    5  C           1     -40.954  11.784  61.189  0.00  0.00     0.187 C 
BRANCH   5   6
HETATM    6  C           1     -39.855  11.463  60.145  0.00  0.00     0.009 C 
HETATM    7  C           1     -40.281  12.007  58.723  0.00  0.00     0.007 C 
HETATM    8  C           1     -41.053  11.022  57.790  0.00  0.00    -0.032 C 
HETATM    9  C           1     -39.142  12.751  57.982  0.00  0.00     0.007 C 
HETATM   10  C           1     -41.442  11.659  56.408  0.00  0.00     0.026 C 
HETATM   11  C           1     -40.210   9.740  57.601  0.00  0.00     0.012 C 
HETATM   12  C           1     -42.416  10.634  58.449  0.00  0.00     0.016 C 
HETATM   13  C           1     -40.528  12.757  55.797  0.00  0.00    -0.025 C 
HETATM   14  C           1     -41.993  10.681  55.388  0.00  0.00    -0.020 C 
HETATM   15  C           1     -40.430  12.626  54.239  0.00  0.00    -0.006 C 
HETATM   16  C           1     -39.144  12.634  56.458  0.00  0.00     0.011 C 
HETATM   17  C           1     -41.109  14.147  56.158  0.00  0.00     0.017 C 
HETATM   18  C           1     -41.738  12.161  53.595  0.00  0.00    -0.046 C 
HETATM   19  C           1     -39.808  13.836  53.499  0.00  0.00     0.047 C 
HETATM   20  C           1     -39.447  11.465  53.855  0.00  0.00     0.021 C 
HETATM   21  C           1     -42.238  12.744  52.481  0.00  0.00    -0.059 C 
HETATM   22  C           1     -42.233  11.024  54.113  0.00  0.00     0.004 C 
HETATM   23  C           1     -41.862  14.132  52.003  0.00  0.00     0.031 C 
HETATM   24  C           1     -43.208  12.088  51.509  0.00  0.00     0.044 C 
HETATM   25  C           1     -40.834  14.798  52.932  0.00  0.00     0.134 C 
HETATM   26  C           1     -41.324  13.837  50.598  0.00  0.00     0.020 C 
HETATM   27  C           1     -42.176  12.855  49.747  0.00  0.00     0.010 C 
HETATM   28  C           1     -42.353  11.342  50.334  0.00  0.00    -0.044 C 
HETATM   29  C           1     -43.416  10.151  50.551  0.00  0.00     0.015 C 
HETATM   30  C           1     -42.587  10.952  48.766  0.00  0.00     0.015 C 
HETATM   31  C           1     -39.137   9.532  58.684  0.00  0.00     0.034 C 
HETATM   32  C           1     -39.638   9.919  60.083  0.00  0.00     0.135 C 
HETATM   33  C           1     -38.579  12.164  60.683  0.00  0.00     0.020 C 
BRANCH  23  34
HETATM   34  C           1     -43.078  15.094  52.038  0.00  0.00     0.180 C 
BRANCH  34  35
HETATM   35  O           1     -42.992  16.127  52.995  0.00  0.00    -0.400 OA
HETATM   36  H           1     -42.073  16.245  53.249  0.00  0.00     0.209 HD
ENDBRANCH  34  35
ENDBRANCH  23  34
BRANCH  25  37
HETATM   37  O           1     -40.157  15.833  52.253  0.00  0.00    -0.394 OA
HETATM   38  H           1     -39.423  15.474  51.752  0.00  0.00     0.210 HD
ENDBRANCH  25  37
BRANCH  32  39
HETATM   39  O           1     -38.725   9.382  61.011  0.00  0.00    -0.352 OA
BRANCH  39  40
HETATM   40  C           1     -39.152   8.405  61.955  0.00  0.00     0.291 C 
HETATM   41  O           1     -40.559   8.406  61.872  0.00  0.00    -0.351 OA
HETATM   42  C           1     -41.173   7.639  62.869  0.00  0.00     0.152 C 
HETATM   43  C           1     -40.755   6.177  62.760  0.00  0.00     0.178 C 
HETATM   44  C           1     -42.689   7.808  62.745  0.00  0.00     0.042 C 
HETATM   45  C           1     -39.241   6.037  62.844  0.00  0.00     0.189 C 
HETATM   46  C           1     -38.577   7.006  61.869  0.00  0.00     0.205 C 
BRANCH  43  47
HETATM   47  O           1     -41.211   5.645  61.540  0.00  0.00    -0.390 OA
HETATM   48  H           1     -40.608   4.972  61.212  0.00  0.00     0.210 HD
ENDBRANCH  43  47
BRANCH  45  49
HETATM   49  O           1     -38.778   4.760  62.495  0.00  0.00    -0.348 OA
BRANCH  49  50
HETATM   50  C           1     -38.189   4.008  63.537  0.00  0.00     0.292 C 
HETATM   51  O           1     -38.502   2.665  63.226  0.00  0.00    -0.348 OA
HETATM   52  C           1     -37.574   1.692  63.624  0.00  0.00     0.179 C 
HETATM   53  C           1     -36.824   2.134  64.870  0.00  0.00     0.180 C 
HETATM   54  C           1     -36.012   3.386  64.580  0.00  0.00     0.183 C 
HETATM   55  C           1     -36.701   4.273  63.556  0.00  0.00     0.204 C 
BRANCH  52  56
HETATM   56  C           1     -38.366   0.401  63.796  0.00  0.00     0.198 C 
BRANCH  56  57
HETATM   57  O           1     -39.660   0.532  63.249  0.00  0.00    -0.398 OA
HETATM   58  H           1     -40.140   1.234  63.693  0.00  0.00     0.209 HD
ENDBRANCH  56  57
ENDBRANCH  52  56
BRANCH  53  59
HETATM   59  O           1     -35.924   1.148  65.317  0.00  0.00    -0.390 OA
HETATM   60  H           1     -35.760   1.224  66.257  0.00  0.00     0.210 HD
ENDBRANCH  53  59
BRANCH  54  61
HETATM   61  O           1     -35.830   4.084  65.787  0.00  0.00    -0.390 OA
HETATM   62  H           1     -35.374   3.511  66.410  0.00  0.00     0.210 HD
ENDBRANCH  54  61
BRANCH  55  63
HETATM   63  O           1     -36.164   4.026  62.276  0.00  0.00    -0.388 OA
HETATM   64  H           1     -36.159   4.836  61.762  0.00  0.00     0.210 HD
ENDBRANCH  55  63
ENDBRANCH  49  50
ENDBRANCH  45  49
BRANCH  46  65
HETATM   65  O           1     -37.199   7.022  62.154  0.00  0.00    -0.388 OA
HETATM   66  H           1     -36.871   7.914  62.013  0.00  0.00     0.210 HD
ENDBRANCH  46  65
ENDBRANCH  39  40
ENDBRANCH  32  39
ENDBRANCH   5   6
ENDBRANCH   4   5
ENDBRANCH   1   4
BRANCH   1  67
HETATM   67  O           1     -40.915  15.946  62.588  0.00  0.00    -0.345 OA
BRANCH  67  68
HETATM   68  C           1     -39.630  15.803  63.169  0.00  0.00     0.187 C 
BRANCH  68  69
HETATM   69  C           1     -39.052  17.122  63.768  0.00  0.00     0.009 C 
HETATM   70  C           1     -38.536  16.901  65.248  0.00  0.00     0.007 C 
HETATM   71  C           1     -37.512  17.896  65.903  0.00  0.00    -0.032 C 
HETATM   72  C           1     -38.131  15.467  65.626  0.00  0.00     0.007 C 
HETATM   73  C           1     -36.552  17.276  67.017  0.00  0.00     0.026 C 
HETATM   74  C           1     -36.559  18.501  64.833  0.00  0.00     0.012 C 
HETATM   75  C           1     -38.338  19.059  66.522  0.00  0.00     0.016 C 
HETATM   76  C           1     -36.978  16.031  67.850  0.00  0.00    -0.025 C 
HETATM   77  C           1     -36.038  18.389  67.905  0.00  0.00    -0.020 C 
HETATM   78  C           1     -37.255  16.375  69.363  0.00  0.00    -0.006 C 
HETATM   79  C           1     -38.174  15.353  67.157  0.00  0.00     0.011 C 
HETATM   80  C           1     -35.846  14.959  67.749  0.00  0.00     0.017 C 
HETATM   81  C           1     -37.539  17.862  69.619  0.00  0.00    -0.046 C 
HETATM   82  C           1     -38.259  15.416  70.053  0.00  0.00     0.047 C 
HETATM   83  C           1     -35.948  16.215  70.220  0.00  0.00     0.021 C 
HETATM   84  C           1     -38.445  18.281  70.530  0.00  0.00    -0.059 C 
HETATM   85  C           1     -36.675  18.715  69.037  0.00  0.00     0.004 C 
HETATM   86  C           1     -39.481  17.347  71.148  0.00  0.00     0.031 C 
HETATM   87  C           1     -38.603  19.715  71.005  0.00  0.00     0.044 C 
HETATM   88  C           1     -38.831  15.968  71.354  0.00  0.00     0.134 C 
HETATM   89  C           1     -39.933  17.915  72.521  0.00  0.00     0.020 C 
HETATM   90  C           1     -38.769  18.585  73.268  0.00  0.00     0.010 C 
HETATM   91  C           1     -38.223  19.812  72.500  0.00  0.00    -0.044 C 
HETATM   92  C           1     -36.686  19.871  72.636  0.00  0.00     0.015 C 
HETATM   93  C           1     -38.810  21.107  73.100  0.00  0.00     0.015 C 
HETATM   94  C           1     -37.199  18.883  63.497  0.00  0.00     0.034 C 
HETATM   95  C           1     -37.878  17.651  62.911  0.00  0.00     0.135 C 
HETATM   96  C           1     -40.264  18.091  63.828  0.00  0.00     0.020 C 
BRANCH  86  97
HETATM   97  C           1     -40.693  17.241  70.196  0.00  0.00     0.180 C 
BRANCH  97  98
HETATM   98  O           1     -41.863  16.829  70.869  0.00  0.00    -0.400 OA
HETATM   99  H           1     -42.634  16.923  70.302  0.00  0.00     0.209 HD
ENDBRANCH  97  98
ENDBRANCH  86  97
BRANCH  88 100
HETATM  100  O           1     -39.768  15.045  71.861  0.00  0.00    -0.394 OA
HETATM  101  H           1     -40.657  15.384  71.738  0.00  0.00     0.210 HD
ENDBRANCH  88 100
BRANCH  95 102
HETATM  102  O           1     -38.134  17.692  61.531  0.00  0.00    -0.352 OA
BRANCH 102 103
HETATM  103  C           1     -37.319  18.458  60.664  0.00  0.00     0.291 C 
HETATM  104  O           1     -38.146  19.450  60.123  0.00  0.00    -0.351 OA
HETATM  105  C           1     -37.560  20.190  59.097  0.00  0.00     0.152 C 
HETATM  106  C           1     -37.326  19.274  57.902  0.00  0.00     0.178 C 
HETATM  107  C           1     -38.521  21.336  58.771  0.00  0.00     0.042 C 
HETATM  108  C           1     -36.358  18.162  58.288  0.00  0.00     0.189 C 
HETATM  109  C           1     -36.855  17.513  59.574  0.00  0.00     0.205 C 
BRANCH 106 110
HETATM  110  O           1     -36.797  20.039  56.844  0.00  0.00    -0.390 OA
HETATM  111  H           1     -37.510  20.451  56.351  0.00  0.00     0.210 HD
ENDBRANCH 106 110
BRANCH 108 112
HETATM  112  O           1     -36.274  17.087  57.390  0.00  0.00    -0.348 OA
BRANCH 112 113
HETATM  113  C           1     -35.047  16.849  56.743  0.00  0.00     0.292 C 
HETATM  114  O           1     -34.949  17.769  55.673  0.00  0.00    -0.348 OA
HETATM  115  C           1     -35.968  17.675  54.707  0.00  0.00     0.179 C 
HETATM  116  C           1     -36.022  16.281  54.098  0.00  0.00     0.180 C 
HETATM  117  C           1     -36.118  15.236  55.192  0.00  0.00     0.183 C 
HETATM  118  C           1     -35.002  15.441  56.190  0.00  0.00     0.204 C 
BRANCH 115 119
HETATM  119  C           1     -35.731  18.776  53.683  0.00  0.00     0.198 C 
BRANCH 119 120
HETATM  120  O           1     -34.977  19.819  54.262  0.00  0.00    -0.398 OA
HETATM  121  H           1     -34.504  20.319  53.588  0.00  0.00     0.209 HD
ENDBRANCH 119 120
ENDBRANCH 115 119
BRANCH 116 122
HETATM  122  O           1     -37.156  16.110  53.280  0.00  0.00    -0.390 OA
HETATM  123  H           1     -37.947  16.494  53.663  0.00  0.00     0.210 HD
ENDBRANCH 116 122
BRANCH 117 124
HETATM  124  O           1     -36.013  13.956  54.624  0.00  0.00    -0.390 OA
HETATM  125  H           1     -35.337  13.471  55.104  0.00  0.00     0.210 HD
ENDBRANCH 117 124
BRANCH 118 126
HETATM  126  O           1     -35.141  14.493  57.220  0.00  0.00    -0.388 OA
HETATM  127  H           1     -35.362  14.964  58.028  0.00  0.00     0.210 HD
ENDBRANCH 118 126
ENDBRANCH 112 113
ENDBRANCH 108 112
BRANCH 109 128
HETATM  128  O           1     -35.831  16.677  60.061  0.00  0.00    -0.388 OA
HETATM  129  H           1     -35.262  17.201  60.632  0.00  0.00     0.210 HD
ENDBRANCH 109 128
ENDBRANCH 102 103
ENDBRANCH  95 102
ENDBRANCH  68  69
ENDBRANCH  67  68
ENDBRANCH   1  67
TORSDOF 34
ENDMDL
MODEL 4
REMARK VINA RESULT:      -8.1      3.066      9.508
REMARK WARNING: 32 MAX_TORS EXCEEDED!!!
REMARK  34 active torsions:
REMARK  status: ('A' for Active; 'I' for Inactive)
REMARK    1  A    between atoms: O_1  and  C_25 
REMARK    2  A    between atoms: O_1  and  C_44 
REMARK    3  A    between atoms: O_2  and  C_32 
REMARK    4  A    between atoms: O_3  and  C_35 
REMARK    5  A    between atoms: O_3  and  Pt_111 
REMARK    6  A    between atoms: O_4  and  C_41 
REMARK    7  A    between atoms: O_6  and  C_45 
REMARK    8  A    between atoms: O_7  and  C_46 
REMARK    9  A    between atoms: O_7  and  C_50 
REMARK   10  A    between atoms: O_8  and  C_48 
REMARK   11  A    between atoms: O_10  and  C_51 
REMARK   12  A    between atoms: O_11  and  C_52 
REMARK   13  A    between atoms: O_12  and  C_54 
REMARK   14  A    between atoms: O_13  and  C_55 
REMARK   15  A    between atoms: C_20  and  C_35 
REMARK   16  A    between atoms: C_26  and  C_41 
REMARK   17  A    between atoms: C_53  and  C_55 
REMARK   18  A    between atoms: O_56  and  C_80 
REMARK   19  A    between atoms: O_56  and  C_99 
REMARK   20  A    between atoms: O_57  and  C_87 
REMARK   21  A    between atoms: O_58  and  C_90 
REMARK   22  A    between atoms: O_58  and  Pt_111 
REMARK   23  A    between atoms: O_59  and  C_96 
REMARK   24  A    between atoms: O_61  and  C_100 
REMARK   25  A    between atoms: O_62  and  C_101 
REMARK   26  A    between atoms: O_62  and  C_105 
REMARK   27  A    between atoms: O_63  and  C_103 
REMARK   28  A    between atoms: O_65  and  C_106 
REMARK   29  A    between atoms: O_66  and  C_107 
REMARK   30  A    between atoms: O_67  and  C_109 
REMARK   31  A    between atoms: O_68  and  C_110 
REMARK   32  A    between atoms: C_75  and  C_90 
REMARK   33  A    between atoms: C_81  and  C_96 
REMARK   34  A    between atoms: C_108  and  C_110 
ROOT
HETATM    1  Pt          1     -22.906  -3.283  59.756  0.00  0.00     0.089 P 
HETATM    2  Cl          1     -25.086  -3.535  60.349  0.00  0.00     0.098 C 
HETATM    3  Cl          1     -21.699  -2.831  61.629  0.00  0.00     0.098 C 
ENDROOT
BRANCH   1   4
HETATM    4  O           1     -22.816  -1.792  58.536  0.00  0.00    -0.345 OA
BRANCH   4   5
HETATM    5  C           1     -22.762  -2.096  57.163  0.00  0.00     0.187 C 
BRANCH   5   6
HETATM    6  C           1     -24.159  -2.162  56.497  0.00  0.00     0.009 C 
HETATM    7  C           1     -24.668  -3.658  56.448  0.00  0.00     0.007 C 
HETATM    8  C           1     -24.333  -4.478  55.162  0.00  0.00    -0.032 C 
HETATM    9  C           1     -26.146  -3.820  56.882  0.00  0.00     0.007 C 
HETATM   10  C           1     -24.869  -5.953  55.216  0.00  0.00     0.026 C 
HETATM   11  C           1     -24.878  -3.725  53.927  0.00  0.00     0.012 C 
HETATM   12  C           1     -22.784  -4.621  55.020  0.00  0.00     0.016 C 
HETATM   13  C           1     -26.162  -6.260  56.021  0.00  0.00    -0.025 C 
HETATM   14  C           1     -24.764  -6.717  53.909  0.00  0.00    -0.020 C 
HETATM   15  C           1     -27.044  -7.342  55.309  0.00  0.00    -0.006 C 
HETATM   16  C           1     -26.929  -4.938  56.194  0.00  0.00     0.011 C 
HETATM   17  C           1     -25.764  -6.769  57.429  0.00  0.00     0.017 C 
HETATM   18  C           1     -26.215  -8.416  54.601  0.00  0.00    -0.046 C 
HETATM   19  C           1     -28.186  -7.948  56.161  0.00  0.00     0.047 C 
HETATM   20  C           1     -27.831  -6.698  54.114  0.00  0.00     0.021 C 
HETATM   21  C           1     -26.507  -9.733  54.703  0.00  0.00    -0.059 C 
HETATM   22  C           1     -25.309  -7.931  53.734  0.00  0.00     0.004 C 
HETATM   23  C           1     -27.342 -10.338  55.813  0.00  0.00     0.031 C 
HETATM   24  C           1     -26.093 -10.802  53.702  0.00  0.00     0.044 C 
HETATM   25  C           1     -27.829  -9.271  56.810  0.00  0.00     0.134 C 
HETATM   26  C           1     -28.474 -11.002  55.020  0.00  0.00     0.020 C 
HETATM   27  C           1     -28.029 -11.806  53.767  0.00  0.00     0.010 C 
HETATM   28  C           1     -27.275 -10.965  52.587  0.00  0.00    -0.044 C 
HETATM   29  C           1     -26.051 -11.012  51.542  0.00  0.00     0.015 C 
HETATM   30  C           1     -27.837 -12.158  51.624  0.00  0.00     0.015 C 
HETATM   31  C           1     -25.148  -2.231  54.174  0.00  0.00     0.034 C 
HETATM   32  C           1     -24.069  -1.581  55.051  0.00  0.00     0.135 C 
HETATM   33  C           1     -25.064  -1.263  57.382  0.00  0.00     0.020 C 
BRANCH  23  34
HETATM   34  C           1     -26.509 -11.313  56.685  0.00  0.00     0.180 C 
BRANCH  34  35
HETATM   35  O           1     -25.402 -10.729  57.338  0.00  0.00    -0.400 OA
HETATM   36  H           1     -25.688  -9.934  57.794  0.00  0.00     0.209 HD
ENDBRANCH  34  35
ENDBRANCH  23  34
BRANCH  25  37
HETATM   37  O           1     -28.949  -9.743  57.525  0.00  0.00    -0.394 OA
HETATM   38  H           1     -29.687  -9.881  56.928  0.00  0.00     0.210 HD
ENDBRANCH  25  37
BRANCH  32  39
HETATM   39  O           1     -24.225  -0.186  54.932  0.00  0.00    -0.352 OA
BRANCH  39  40
HETATM   40  C           1     -23.226   0.595  54.283  0.00  0.00     0.291 C 
HETATM   41  O           1     -23.096   0.029  52.998  0.00  0.00    -0.351 OA
HETATM   42  C           1     -22.017   0.546  52.273  0.00  0.00     0.152 C 
HETATM   43  C           1     -22.186   2.044  52.047  0.00  0.00     0.178 C 
HETATM   44  C           1     -21.910  -0.219  50.952  0.00  0.00     0.042 C 
HETATM   45  C           1     -22.332   2.780  53.372  0.00  0.00     0.189 C 
HETATM   46  C           1     -23.397   2.100  54.228  0.00  0.00     0.205 C 
BRANCH  43  47
HETATM   47  O           1     -23.323   2.276  51.250  0.00  0.00    -0.390 OA
HETATM   48  H           1     -23.255   3.119  50.793  0.00  0.00     0.210 HD
ENDBRANCH  43  47
BRANCH  45  49
HETATM   49  O           1     -22.745   4.113  53.228  0.00  0.00    -0.348 OA
BRANCH  49  50
HETATM   50  C           1     -21.832   5.096  53.671  0.00  0.00     0.292 C 
HETATM   51  O           1     -20.580   4.440  53.677  0.00  0.00    -0.348 OA
HETATM   52  C           1     -19.451   5.230  53.416  0.00  0.00     0.179 C 
HETATM   53  C           1     -19.674   6.662  53.874  0.00  0.00     0.180 C 
HETATM   54  C           1     -20.812   7.295  53.090  0.00  0.00     0.183 C 
HETATM   55  C           1     -21.872   6.270  52.720  0.00  0.00     0.204 C 
BRANCH  52  56
HETATM   56  C           1     -18.282   4.530  54.100  0.00  0.00     0.198 C 
BRANCH  56  57
HETATM   57  O           1     -18.601   3.186  54.385  0.00  0.00    -0.398 OA
HETATM   58  H           1     -18.503   3.012  55.323  0.00  0.00     0.209 HD
ENDBRANCH  56  57
ENDBRANCH  52  56
BRANCH  53  59
HETATM   59  O           1     -18.532   7.460  53.669  0.00  0.00    -0.390 OA
HETATM   60  H           1     -18.575   8.270  54.178  0.00  0.00     0.210 HD
ENDBRANCH  53  59
BRANCH  54  61
HETATM   61  O           1     -21.374   8.319  53.874  0.00  0.00    -0.390 OA
HETATM   62  H           1     -20.735   9.033  53.954  0.00  0.00     0.210 HD
ENDBRANCH  54  61
BRANCH  55  63
HETATM   63  O           1     -21.655   5.816  51.404  0.00  0.00    -0.388 OA
HETATM   64  H           1     -22.189   6.324  50.790  0.00  0.00     0.210 HD
ENDBRANCH  55  63
ENDBRANCH  49  50
ENDBRANCH  45  49
BRANCH  46  65
HETATM   65  O           1     -23.323   2.651  55.521  0.00  0.00    -0.388 OA
HETATM   66  H           1     -23.581   3.575  55.471  0.00  0.00     0.210 HD
ENDBRANCH  46  65
ENDBRANCH  39  40
ENDBRANCH  32  39
ENDBRANCH   5   6
ENDBRANCH   4   5
ENDBRANCH   1   4
BRANCH   1  67
HETATM   67  O           1     -22.223  -4.834  58.837  0.00  0.00    -0.345 OA
BRANCH  67  68
HETATM   68  C           1     -22.252  -6.108  59.456  0.00  0.00     0.187 C 
BRANCH  68  69
HETATM   69  C           1     -20.944  -6.938  59.267  0.00  0.00     0.009 C 
HETATM   70  C           1     -21.081  -7.959  58.066  0.00  0.00     0.007 C 
HETATM   71  C           1     -19.809  -8.565  57.372  0.00  0.00    -0.032 C 
HETATM   72  C           1     -22.107  -7.604  56.978  0.00  0.00     0.007 C 
HETATM   73  C           1     -19.978  -8.971  55.839  0.00  0.00     0.026 C 
HETATM   74  C           1     -18.624  -7.557  57.400  0.00  0.00     0.012 C 
HETATM   75  C           1     -19.392  -9.817  58.196  0.00  0.00     0.016 C 
HETATM   76  C           1     -21.368  -9.356  55.252  0.00  0.00    -0.025 C 
HETATM   77  C           1     -18.921  -9.992  55.476  0.00  0.00    -0.020 C 
HETATM   78  C           1     -21.473 -10.885  54.882  0.00  0.00    -0.006 C 
HETATM   79  C           1     -22.466  -8.896  56.228  0.00  0.00     0.011 C 
HETATM   80  C           1     -21.625  -8.484  53.981  0.00  0.00     0.017 C 
HETATM   81  C           1     -20.438 -11.767  55.596  0.00  0.00    -0.046 C 
HETATM   82  C           1     -22.916 -11.447  54.930  0.00  0.00     0.047 C 
HETATM   83  C           1     -21.033 -11.130  53.394  0.00  0.00     0.021 C 
HETATM   84  C           1     -20.726 -13.014  56.032  0.00  0.00    -0.059 C 
HETATM   85  C           1     -19.174 -11.305  55.561  0.00  0.00     0.004 C 
HETATM   86  C           1     -22.155 -13.534  56.149  0.00  0.00     0.031 C 
HETATM   87  C           1     -19.701 -14.023  56.521  0.00  0.00     0.044 C 
HETATM   88  C           1     -22.976 -12.969  54.976  0.00  0.00     0.134 C 
HETATM   89  C           1     -22.148 -15.084  56.075  0.00  0.00     0.020 C 
HETATM   90  C           1     -21.082 -15.599  55.094  0.00  0.00     0.010 C 
HETATM   91  C           1     -19.652 -15.224  55.549  0.00  0.00    -0.044 C 
HETATM   92  C           1     -18.793 -14.855  54.320  0.00  0.00     0.015 C 
HETATM   93  C           1     -18.994 -16.431  56.251  0.00  0.00     0.015 C 
HETATM   94  C           1     -18.444  -6.762  58.695  0.00  0.00     0.034 C 
HETATM   95  C           1     -19.737  -6.011  58.990  0.00  0.00     0.135 C 
HETATM   96  C           1     -20.808  -7.761  60.577  0.00  0.00     0.020 C 
BRANCH  86  97
HETATM   97  C           1     -22.748 -13.073  57.499  0.00  0.00     0.180 C 
BRANCH  97  98
HETATM   98  O           1     -24.018 -13.638  57.742  0.00  0.00    -0.400 OA
HETATM   99  H           1     -24.673 -12.951  57.901  0.00  0.00     0.209 HD
ENDBRANCH  97  98
ENDBRANCH  86  97
BRANCH  88 100
HETATM  100  O           1     -24.325 -13.365  55.075  0.00  0.00    -0.394 OA
HETATM  101  H           1     -24.896 -12.631  54.839  0.00  0.00     0.210 HD
ENDBRANCH  88 100
BRANCH  95 102
HETATM  102  O           1     -19.624  -4.920  59.868  0.00  0.00    -0.352 OA
BRANCH 102 103
HETATM  103  C           1     -18.354  -4.448  60.279  0.00  0.00     0.291 C 
HETATM  104  O           1     -18.450  -4.212  61.656  0.00  0.00    -0.351 OA
HETATM  105  C           1     -17.346  -3.562  62.205  0.00  0.00     0.152 C 
HETATM  106  C           1     -17.275  -2.150  61.638  0.00  0.00     0.178 C 
HETATM  107  C           1     -17.538  -3.569  63.725  0.00  0.00     0.042 C 
HETATM  108  C           1     -17.076  -2.211  60.128  0.00  0.00     0.189 C 
HETATM  109  C           1     -18.129  -3.145  59.540  0.00  0.00     0.205 C 
BRANCH 106 110
HETATM  110  O           1     -16.199  -1.474  62.246  0.00  0.00    -0.390 OA
HETATM  111  H           1     -15.369  -1.780  61.875  0.00  0.00     0.210 HD
ENDBRANCH 106 110
BRANCH 108 112
HETATM  112  O           1     -17.282  -1.008  59.436  0.00  0.00    -0.348 OA
BRANCH 112 113
HETATM  113  C           1     -18.440  -0.262  59.722  0.00  0.00     0.292 C 
HETATM  114  O           1     -19.216  -0.215  58.540  0.00  0.00    -0.348 OA
HETATM  115  C           1     -18.584   0.381  57.433  0.00  0.00     0.179 C 
HETATM  116  C           1     -18.156   1.807  57.746  0.00  0.00     0.180 C 
HETATM  117  C           1     -17.324   1.838  59.013  0.00  0.00     0.183 C 
HETATM  118  C           1     -18.074   1.150  60.129  0.00  0.00     0.204 C 
BRANCH 115 119
HETATM  119  C           1     -19.539   0.280  56.251  0.00  0.00     0.198 C 
BRANCH 119 120
HETATM  120  O           1     -20.275   1.478  56.124  0.00  0.00    -0.398 OA
HETATM  121  H           1     -20.330   1.752  55.202  0.00  0.00     0.209 HD
ENDBRANCH 119 120
ENDBRANCH 115 119
BRANCH 116 122
HETATM  122  O           1     -17.349   2.348  56.724  0.00  0.00    -0.390 OA
HETATM  123  H           1     -16.496   1.916  56.662  0.00  0.00     0.210 HD
ENDBRANCH 116 122
BRANCH 117 124
HETATM  124  O           1     -17.067   3.172  59.369  0.00  0.00    -0.390 OA
HETATM  125  H           1     -16.268   3.189  59.903  0.00  0.00     0.210 HD
ENDBRANCH 117 124
BRANCH 118 126
HETATM  126  O           1     -17.264   1.146  61.279  0.00  0.00    -0.388 OA
HETATM  127  H           1     -17.403   0.312  61.736  0.00  0.00     0.210 HD
ENDBRANCH 118 126
ENDBRANCH 112 113
ENDBRANCH 108 112
BRANCH 109 128
HETATM  128  O           1     -17.780  -3.401  58.200  0.00  0.00    -0.388 OA
HETATM  129  H           1     -16.827  -3.524  58.156  0.00  0.00     0.210 HD
ENDBRANCH 109 128
ENDBRANCH 102 103
ENDBRANCH  95 102
ENDBRANCH  68  69
ENDBRANCH  67  68
ENDBRANCH   1  67
TORSDOF 34
ENDMDL
MODEL 5
REMARK VINA RESULT:      -8.1      3.193      8.719
REMARK WARNING: 32 MAX_TORS EXCEEDED!!!
REMARK  34 active torsions:
REMARK  status: ('A' for Active; 'I' for Inactive)
REMARK    1  A    between atoms: O_1  and  C_25 
REMARK    2  A    between atoms: O_1  and  C_44 
REMARK    3  A    between atoms: O_2  and  C_32 
REMARK    4  A    between atoms: O_3  and  C_35 
REMARK    5  A    between atoms: O_3  and  Pt_111 
REMARK    6  A    between atoms: O_4  and  C_41 
REMARK    7  A    between atoms: O_6  and  C_45 
REMARK    8  A    between atoms: O_7  and  C_46 
REMARK    9  A    between atoms: O_7  and  C_50 
REMARK   10  A    between atoms: O_8  and  C_48 
REMARK   11  A    between atoms: O_10  and  C_51 
REMARK   12  A    between atoms: O_11  and  C_52 
REMARK   13  A    between atoms: O_12  and  C_54 
REMARK   14  A    between atoms: O_13  and  C_55 
REMARK   15  A    between atoms: C_20  and  C_35 
REMARK   16  A    between atoms: C_26  and  C_41 
REMARK   17  A    between atoms: C_53  and  C_55 
REMARK   18  A    between atoms: O_56  and  C_80 
REMARK   19  A    between atoms: O_56  and  C_99 
REMARK   20  A    between atoms: O_57  and  C_87 
REMARK   21  A    between atoms: O_58  and  C_90 
REMARK   22  A    between atoms: O_58  and  Pt_111 
REMARK   23  A    between atoms: O_59  and  C_96 
REMARK   24  A    between atoms: O_61  and  C_100 
REMARK   25  A    between atoms: O_62  and  C_101 
REMARK   26  A    between atoms: O_62  and  C_105 
REMARK   27  A    between atoms: O_63  and  C_103 
REMARK   28  A    between atoms: O_65  and  C_106 
REMARK   29  A    between atoms: O_66  and  C_107 
REMARK   30  A    between atoms: O_67  and  C_109 
REMARK   31  A    between atoms: O_68  and  C_110 
REMARK   32  A    between atoms: C_75  and  C_90 
REMARK   33  A    between atoms: C_81  and  C_96 
REMARK   34  A    between atoms: C_108  and  C_110 
ROOT
HETATM    1  Pt          1     -23.037  -2.843  59.886  0.00  0.00     0.089 P 
HETATM    2  Cl          1     -25.188  -2.795  60.616  0.00  0.00     0.098 C 
HETATM    3  Cl          1     -21.685  -2.175  61.588  0.00  0.00     0.098 C 
ENDROOT
BRANCH   1   4
HETATM    4  O           1     -22.906  -1.605  58.413  0.00  0.00    -0.345 OA
BRANCH   4   5
HETATM    5  C           1     -22.875  -2.158  57.119  0.00  0.00     0.187 C 
BRANCH   5   6
HETATM    6  C           1     -24.274  -2.245  56.458  0.00  0.00     0.009 C 
HETATM    7  C           1     -24.761  -3.749  56.415  0.00  0.00     0.007 C 
HETATM    8  C           1     -24.419  -4.567  55.130  0.00  0.00    -0.032 C 
HETATM    9  C           1     -26.234  -3.931  56.856  0.00  0.00     0.007 C 
HETATM   10  C           1     -24.934  -6.050  55.189  0.00  0.00     0.026 C 
HETATM   11  C           1     -24.980  -3.825  53.895  0.00  0.00     0.012 C 
HETATM   12  C           1     -22.868  -4.688  54.982  0.00  0.00     0.016 C 
HETATM   13  C           1     -26.219  -6.373  56.000  0.00  0.00    -0.025 C 
HETATM   14  C           1     -24.822  -6.815  53.883  0.00  0.00    -0.020 C 
HETATM   15  C           1     -27.087  -7.469  55.294  0.00  0.00    -0.006 C 
HETATM   16  C           1     -27.005  -5.062  56.173  0.00  0.00     0.011 C 
HETATM   17  C           1     -25.808  -6.874  57.407  0.00  0.00     0.017 C 
HETATM   18  C           1     -26.246  -8.533  54.585  0.00  0.00    -0.046 C 
HETATM   19  C           1     -28.217  -8.090  56.152  0.00  0.00     0.047 C 
HETATM   20  C           1     -27.888  -6.840  54.100  0.00  0.00     0.021 C 
HETATM   21  C           1     -26.518  -9.854  54.691  0.00  0.00    -0.059 C 
HETATM   22  C           1     -25.350  -8.037  53.714  0.00  0.00     0.004 C 
HETATM   23  C           1     -27.340 -10.468  55.806  0.00  0.00     0.031 C 
HETATM   24  C           1     -26.093 -10.919  53.691  0.00  0.00     0.044 C 
HETATM   25  C           1     -27.838  -9.407  56.802  0.00  0.00     0.134 C 
HETATM   26  C           1     -28.465 -11.151  55.019  0.00  0.00     0.020 C 
HETATM   27  C           1     -28.013 -11.951  53.765  0.00  0.00     0.010 C 
HETATM   28  C           1     -27.277 -11.102  52.581  0.00  0.00    -0.044 C 
HETATM   29  C           1     -26.056 -11.133  51.531  0.00  0.00     0.015 C 
HETATM   30  C           1     -27.825 -12.305  51.622  0.00  0.00     0.015 C 
HETATM   31  C           1     -25.271  -2.334  54.140  0.00  0.00     0.034 C 
HETATM   32  C           1     -24.197  -1.667  55.011  0.00  0.00     0.135 C 
HETATM   33  C           1     -25.188  -1.357  57.345  0.00  0.00     0.020 C 
BRANCH  23  34
HETATM   34  C           1     -26.489 -11.429  56.677  0.00  0.00     0.180 C 
BRANCH  34  35
HETATM   35  O           1     -27.231 -12.365  57.427  0.00  0.00    -0.400 OA
HETATM   36  H           1     -27.009 -13.253  57.133  0.00  0.00     0.209 HD
ENDBRANCH  34  35
ENDBRANCH  23  34
BRANCH  25  37
HETATM   37  O           1     -28.949  -9.893  57.522  0.00  0.00    -0.394 OA
HETATM   38  H           1     -28.903 -10.848  57.595  0.00  0.00     0.210 HD
ENDBRANCH  25  37
BRANCH  32  39
HETATM   39  O           1     -24.374  -0.274  54.889  0.00  0.00    -0.352 OA
BRANCH  39  40
HETATM   40  C           1     -23.354   0.530  54.306  0.00  0.00     0.291 C 
HETATM   41  O           1     -23.156  -0.007  53.018  0.00  0.00    -0.351 OA
HETATM   42  C           1     -22.049   0.537  52.356  0.00  0.00     0.152 C 
HETATM   43  C           1     -22.224   2.038  52.154  0.00  0.00     0.178 C 
HETATM   44  C           1     -21.871  -0.198  51.026  0.00  0.00     0.042 C 
HETATM   45  C           1     -22.441   2.743  53.486  0.00  0.00     0.189 C 
HETATM   46  C           1     -23.538   2.034  54.275  0.00  0.00     0.205 C 
BRANCH  43  47
HETATM   47  O           1     -23.324   2.276  51.309  0.00  0.00    -0.390 OA
HETATM   48  H           1     -24.152   2.183  51.789  0.00  0.00     0.210 HD
ENDBRANCH  43  47
BRANCH  45  49
HETATM   49  O           1     -22.861   4.075  53.351  0.00  0.00    -0.348 OA
BRANCH  49  50
HETATM   50  C           1     -21.937   5.061  53.762  0.00  0.00     0.292 C 
HETATM   51  O           1     -20.691   4.393  53.780  0.00  0.00    -0.348 OA
HETATM   52  C           1     -19.556   5.165  53.492  0.00  0.00     0.179 C 
HETATM   53  C           1     -19.763   6.612  53.911  0.00  0.00     0.180 C 
HETATM   54  C           1     -20.899   7.233  53.115  0.00  0.00     0.183 C 
HETATM   55  C           1     -21.970   6.209  52.779  0.00  0.00     0.204 C 
BRANCH  52  56
HETATM   56  C           1     -18.390   4.474  54.189  0.00  0.00     0.198 C 
BRANCH  56  57
HETATM   57  O           1     -17.160   4.890  53.636  0.00  0.00    -0.398 OA
HETATM   58  H           1     -16.470   4.866  54.302  0.00  0.00     0.209 HD
ENDBRANCH  56  57
ENDBRANCH  52  56
BRANCH  53  59
HETATM   59  O           1     -18.615   7.393  53.679  0.00  0.00    -0.390 OA
HETATM   60  H           1     -17.911   6.875  53.289  0.00  0.00     0.210 HD
ENDBRANCH  53  59
BRANCH  54  61
HETATM   61  O           1     -21.447   8.284  53.873  0.00  0.00    -0.390 OA
HETATM   62  H           1     -22.383   8.112  54.008  0.00  0.00     0.210 HD
ENDBRANCH  54  61
BRANCH  55  63
HETATM   63  O           1     -21.764   5.717  51.475  0.00  0.00    -0.388 OA
HETATM   64  H           1     -21.641   6.447  50.865  0.00  0.00     0.210 HD
ENDBRANCH  55  63
ENDBRANCH  49  50
ENDBRANCH  45  49
BRANCH  46  65
HETATM   65  O           1     -23.533   2.558  55.581  0.00  0.00    -0.388 OA
HETATM   66  H           1     -22.855   2.102  56.087  0.00  0.00     0.210 HD
ENDBRANCH  46  65
ENDBRANCH  39  40
ENDBRANCH  32  39
ENDBRANCH   5   6
ENDBRANCH   4   5
ENDBRANCH   1   4
BRANCH   1  67
HETATM   67  O           1     -22.534  -4.586  59.233  0.00  0.00    -0.345 OA
BRANCH  67  68
HETATM   68  C           1     -22.984  -5.759  59.889  0.00  0.00     0.187 C 
BRANCH  68  69
HETATM   69  C           1     -21.932  -6.395  60.849  0.00  0.00     0.009 C 
HETATM   70  C           1     -22.098  -5.849  62.325  0.00  0.00     0.007 C 
HETATM   71  C           1     -21.508  -6.638  63.549  0.00  0.00    -0.032 C 
HETATM   72  C           1     -23.491  -5.325  62.710  0.00  0.00     0.007 C 
HETATM   73  C           1     -22.271  -6.445  64.936  0.00  0.00     0.026 C 
HETATM   74  C           1     -21.521  -8.171  63.284  0.00  0.00     0.012 C 
HETATM   75  C           1     -20.026  -6.192  63.707  0.00  0.00     0.016 C 
HETATM   76  C           1     -23.085  -5.153  65.240  0.00  0.00    -0.025 C 
HETATM   77  C           1     -21.331  -6.788  66.072  0.00  0.00    -0.020 C 
HETATM   78  C           1     -22.417  -4.258  66.352  0.00  0.00    -0.006 C 
HETATM   79  C           1     -23.327  -4.395  63.921  0.00  0.00     0.011 C 
HETATM   80  C           1     -24.523  -5.569  65.686  0.00  0.00     0.017 C 
HETATM   81  C           1     -20.921  -4.539  66.558  0.00  0.00    -0.046 C 
HETATM   82  C           1     -22.763  -2.751  66.240  0.00  0.00     0.047 C 
HETATM   83  C           1     -22.948  -4.650  67.778  0.00  0.00     0.021 C 
HETATM   84  C           1     -20.030  -3.559  66.830  0.00  0.00    -0.059 C 
HETATM   85  C           1     -20.596  -5.840  66.667  0.00  0.00     0.004 C 
HETATM   86  C           1     -20.353  -2.080  66.644  0.00  0.00     0.031 C 
HETATM   87  C           1     -18.598  -3.786  67.281  0.00  0.00     0.044 C 
HETATM   88  C           1     -21.824  -1.850  67.034  0.00  0.00     0.134 C 
HETATM   89  C           1     -19.436  -1.232  67.566  0.00  0.00     0.020 C 
HETATM   90  C           1     -19.180  -1.933  68.909  0.00  0.00     0.010 C 
HETATM   91  C           1     -18.420  -3.268  68.726  0.00  0.00    -0.044 C 
HETATM   92  C           1     -18.964  -4.319  69.718  0.00  0.00     0.015 C 
HETATM   93  C           1     -16.920  -3.060  69.020  0.00  0.00     0.015 C 
HETATM   94  C           1     -21.137  -8.616  61.871  0.00  0.00     0.034 C 
HETATM   95  C           1     -22.069  -7.936  60.875  0.00  0.00     0.135 C 
HETATM   96  C           1     -20.561  -5.902  60.311  0.00  0.00     0.020 C 
BRANCH  86  97
HETATM   97  C           1     -20.116  -1.696  65.166  0.00  0.00     0.180 C 
BRANCH  97  98
HETATM   98  O           1     -19.850  -0.319  65.011  0.00  0.00    -0.400 OA
HETATM   99  H           1     -20.149  -0.008  64.151  0.00  0.00     0.209 HD
ENDBRANCH  97  98
ENDBRANCH  86  97
BRANCH  88 100
HETATM  100  O           1     -22.195  -0.508  66.814  0.00  0.00    -0.394 OA
HETATM  101  H           1     -22.565  -0.138  67.617  0.00  0.00     0.210 HD
ENDBRANCH  88 100
BRANCH  95 102
HETATM  102  O           1     -22.154  -8.537  59.609  0.00  0.00    -0.352 OA
BRANCH 102 103
HETATM  103  C           1     -23.356  -9.144  59.173  0.00  0.00     0.291 C 
HETATM  104  O           1     -24.354  -8.717  60.056  0.00  0.00    -0.351 OA
HETATM  105  C           1     -25.578  -9.364  59.896  0.00  0.00     0.152 C 
HETATM  106  C           1     -25.413 -10.830  60.278  0.00  0.00     0.178 C 
HETATM  107  C           1     -26.585  -8.640  60.795  0.00  0.00     0.042 C 
HETATM  108  C           1     -24.407 -11.494  59.345  0.00  0.00     0.189 C 
HETATM  109  C           1     -23.146 -10.639  59.305  0.00  0.00     0.205 C 
BRANCH 106 110
HETATM  110  O           1     -26.665 -11.466  60.180  0.00  0.00    -0.390 OA
HETATM  111  H           1     -26.548 -12.377  59.905  0.00  0.00     0.210 HD
ENDBRANCH 106 110
BRANCH 108 112
HETATM  112  O           1     -23.937 -12.753  59.750  0.00  0.00    -0.348 OA
BRANCH 112 113
HETATM  113  C           1     -24.150 -13.852  58.898  0.00  0.00     0.292 C 
HETATM  114  O           1     -25.501 -14.247  59.046  0.00  0.00    -0.348 OA
HETATM  115  C           1     -25.872 -14.633  60.347  0.00  0.00     0.179 C 
HETATM  116  C           1     -25.010 -15.785  60.845  0.00  0.00     0.180 C 
HETATM  117  C           1     -23.541 -15.438  60.707  0.00  0.00     0.183 C 
HETATM  118  C           1     -23.252 -15.007  59.288  0.00  0.00     0.204 C 
BRANCH 115 119
HETATM  119  C           1     -27.360 -14.955  60.322  0.00  0.00     0.198 C 
BRANCH 119 120
HETATM  120  O           1     -27.915 -14.769  61.607  0.00  0.00    -0.398 OA
HETATM  121  H           1     -27.309 -15.072  62.291  0.00  0.00     0.209 HD
ENDBRANCH 119 120
ENDBRANCH 115 119
BRANCH 116 122
HETATM  122  O           1     -25.232 -16.052  62.211  0.00  0.00    -0.390 OA
HETATM  123  H           1     -26.049 -15.668  62.533  0.00  0.00     0.210 HD
ENDBRANCH 116 122
BRANCH 117 124
HETATM  124  O           1     -22.764 -16.563  61.026  0.00  0.00    -0.390 OA
HETATM  125  H           1     -23.260 -17.348  60.780  0.00  0.00     0.210 HD
ENDBRANCH 117 124
BRANCH 118 126
HETATM  126  O           1     -21.897 -14.643  59.196  0.00  0.00    -0.388 OA
HETATM  127  H           1     -21.627 -14.288  60.049  0.00  0.00     0.210 HD
ENDBRANCH 118 126
ENDBRANCH 112 113
ENDBRANCH 108 112
BRANCH 109 128
HETATM  128  O           1     -22.336 -11.110  58.254  0.00  0.00    -0.388 OA
HETATM  129  H           1     -22.631 -11.996  58.021  0.00  0.00     0.210 HD
ENDBRANCH 109 128
ENDBRANCH 102 103
ENDBRANCH  95 102
ENDBRANCH  68  69
ENDBRANCH  67  68
ENDBRANCH   1  67
TORSDOF 34
ENDMDL
MODEL 6
REMARK VINA RESULT:      -8.0     21.895     29.036
REMARK WARNING: 32 MAX_TORS EXCEEDED!!!
REMARK  34 active torsions:
REMARK  status: ('A' for Active; 'I' for Inactive)
REMARK    1  A    between atoms: O_1  and  C_25 
REMARK    2  A    between atoms: O_1  and  C_44 
REMARK    3  A    between atoms: O_2  and  C_32 
REMARK    4  A    between atoms: O_3  and  C_35 
REMARK    5  A    between atoms: O_3  and  Pt_111 
REMARK    6  A    between atoms: O_4  and  C_41 
REMARK    7  A    between atoms: O_6  and  C_45 
REMARK    8  A    between atoms: O_7  and  C_46 
REMARK    9  A    between atoms: O_7  and  C_50 
REMARK   10  A    between atoms: O_8  and  C_48 
REMARK   11  A    between atoms: O_10  and  C_51 
REMARK   12  A    between atoms: O_11  and  C_52 
REMARK   13  A    between atoms: O_12  and  C_54 
REMARK   14  A    between atoms: O_13  and  C_55 
REMARK   15  A    between atoms: C_20  and  C_35 
REMARK   16  A    between atoms: C_26  and  C_41 
REMARK   17  A    between atoms: C_53  and  C_55 
REMARK   18  A    between atoms: O_56  and  C_80 
REMARK   19  A    between atoms: O_56  and  C_99 
REMARK   20  A    between atoms: O_57  and  C_87 
REMARK   21  A    between atoms: O_58  and  C_90 
REMARK   22  A    between atoms: O_58  and  Pt_111 
REMARK   23  A    between atoms: O_59  and  C_96 
REMARK   24  A    between atoms: O_61  and  C_100 
REMARK   25  A    between atoms: O_62  and  C_101 
REMARK   26  A    between atoms: O_62  and  C_105 
REMARK   27  A    between atoms: O_63  and  C_103 
REMARK   28  A    between atoms: O_65  and  C_106 
REMARK   29  A    between atoms: O_66  and  C_107 
REMARK   30  A    between atoms: O_67  and  C_109 
REMARK   31  A    between atoms: O_68  and  C_110 
REMARK   32  A    between atoms: C_75  and  C_90 
REMARK   33  A    between atoms: C_81  and  C_96 
REMARK   34  A    between atoms: C_108  and  C_110 
ROOT
HETATM    1  Pt          1     -26.582   9.753  80.297  0.00  0.00     0.089 P 
HETATM    2  Cl          1     -26.052   8.315  78.620  0.00  0.00     0.098 C 
HETATM    3  Cl          1     -28.463   8.996  81.327  0.00  0.00     0.098 C 
ENDROOT
BRANCH   1   4
HETATM    4  O           1     -26.917  11.472  79.490  0.00  0.00    -0.345 OA
BRANCH   4   5
HETATM    5  C           1     -27.529  11.471  78.222  0.00  0.00     0.187 C 
BRANCH   5   6
HETATM    6  C           1     -26.845  12.427  77.213  0.00  0.00     0.009 C 
HETATM    7  C           1     -26.286  13.700  77.964  0.00  0.00     0.007 C 
HETATM    8  C           1     -27.231  14.939  78.058  0.00  0.00    -0.032 C 
HETATM    9  C           1     -24.849  14.087  77.535  0.00  0.00     0.007 C 
HETATM   10  C           1     -26.590  16.146  78.833  0.00  0.00     0.026 C 
HETATM   11  C           1     -27.666  15.351  76.633  0.00  0.00     0.012 C 
HETATM   12  C           1     -28.504  14.566  78.884  0.00  0.00     0.016 C 
HETATM   13  C           1     -25.050  16.343  78.786  0.00  0.00    -0.025 C 
HETATM   14  C           1     -27.378  17.440  78.759  0.00  0.00    -0.020 C 
HETATM   15  C           1     -24.663  17.860  78.724  0.00  0.00    -0.006 C 
HETATM   16  C           1     -24.519  15.579  77.560  0.00  0.00     0.011 C 
HETATM   17  C           1     -24.426  15.707  80.053  0.00  0.00     0.017 C 
HETATM   18  C           1     -25.604  18.750  79.540  0.00  0.00    -0.046 C 
HETATM   19  C           1     -23.172  18.186  78.986  0.00  0.00     0.047 C 
HETATM   20  C           1     -24.871  18.413  77.270  0.00  0.00     0.021 C 
HETATM   21  C           1     -25.143  19.727  80.354  0.00  0.00    -0.059 C 
HETATM   22  C           1     -26.904  18.604  79.233  0.00  0.00     0.004 C 
HETATM   23  C           1     -23.732  19.785  80.903  0.00  0.00     0.031 C 
HETATM   24  C           1     -25.942  20.941  80.805  0.00  0.00     0.044 C 
HETATM   25  C           1     -22.879  18.602  80.414  0.00  0.00     0.134 C 
HETATM   26  C           1     -23.255  21.145  80.382  0.00  0.00     0.020 C 
HETATM   27  C           1     -24.269  22.313  80.537  0.00  0.00     0.010 C 
HETATM   28  C           1     -25.690  22.160  79.748  0.00  0.00    -0.044 C 
HETATM   29  C           1     -27.279  22.383  79.884  0.00  0.00     0.015 C 
HETATM   30  C           1     -25.692  23.792  79.801  0.00  0.00     0.015 C 
HETATM   31  C           1     -27.498  14.241  75.582  0.00  0.00     0.034 C 
HETATM   32  C           1     -27.881  12.859  76.128  0.00  0.00     0.135 C 
HETATM   33  C           1     -25.713  11.581  76.569  0.00  0.00     0.020 C 
BRANCH  23  34
HETATM   34  C           1     -23.716  19.645  82.448  0.00  0.00     0.180 C 
BRANCH  34  35
HETATM   35  O           1     -22.787  20.475  83.110  0.00  0.00    -0.400 OA
HETATM   36  H           1     -22.987  20.484  84.050  0.00  0.00     0.209 HD
ENDBRANCH  34  35
ENDBRANCH  23  34
BRANCH  25  37
HETATM   37  O           1     -21.507  18.908  80.525  0.00  0.00    -0.394 OA
HETATM   38  H           1     -21.165  18.596  81.365  0.00  0.00     0.210 HD
ENDBRANCH  25  37
BRANCH  32  39
HETATM   39  O           1     -28.014  11.999  75.020  0.00  0.00    -0.352 OA
BRANCH  39  40
HETATM   40  C           1     -29.297  11.515  74.638  0.00  0.00     0.291 C 
HETATM   41  O           1     -30.123  11.742  75.758  0.00  0.00    -0.351 OA
HETATM   42  C           1     -31.387  11.153  75.641  0.00  0.00     0.152 C 
HETATM   43  C           1     -32.143  11.728  74.449  0.00  0.00     0.178 C 
HETATM   44  C           1     -32.145  11.369  76.953  0.00  0.00     0.042 C 
HETATM   45  C           1     -31.352  11.539  73.162  0.00  0.00     0.189 C 
HETATM   46  C           1     -29.921  12.030  73.356  0.00  0.00     0.205 C 
BRANCH  43  47
HETATM   47  O           1     -32.383  13.099  74.658  0.00  0.00    -0.390 OA
HETATM   48  H           1     -32.337  13.316  75.594  0.00  0.00     0.210 HD
ENDBRANCH  43  47
BRANCH  45  49
HETATM   49  O           1     -31.867  12.266  72.078  0.00  0.00    -0.348 OA
BRANCH  49  50
HETATM   50  C           1     -33.152  11.886  71.630  0.00  0.00     0.292 C 
HETATM   51  O           1     -33.785  13.105  71.295  0.00  0.00    -0.348 OA
HETATM   52  C           1     -34.728  13.063  70.258  0.00  0.00     0.179 C 
HETATM   53  C           1     -35.394  11.699  70.184  0.00  0.00     0.180 C 
HETATM   54  C           1     -34.367  10.628  69.854  0.00  0.00     0.183 C 
HETATM   55  C           1     -33.007  10.959  70.445  0.00  0.00     0.204 C 
BRANCH  52  56
HETATM   56  C           1     -35.691  14.216  70.518  0.00  0.00     0.198 C 
BRANCH  56  57
HETATM   57  O           1     -35.181  15.078  71.513  0.00  0.00    -0.398 OA
HETATM   58  H           1     -35.629  14.927  72.347  0.00  0.00     0.209 HD
ENDBRANCH  56  57
ENDBRANCH  52  56
BRANCH  53  59
HETATM   59  O           1     -36.382  11.653  69.183  0.00  0.00    -0.390 OA
HETATM   60  H           1     -36.534  12.517  68.800  0.00  0.00     0.210 HD
ENDBRANCH  53  59
BRANCH  54  61
HETATM   61  O           1     -34.833   9.399  70.355  0.00  0.00    -0.390 OA
HETATM   62  H           1     -34.078   8.874  70.635  0.00  0.00     0.210 HD
ENDBRANCH  54  61
BRANCH  55  63
HETATM   63  O           1     -32.199  11.571  69.466  0.00  0.00    -0.388 OA
HETATM   64  H           1     -32.364  11.171  68.609  0.00  0.00     0.210 HD
ENDBRANCH  55  63
ENDBRANCH  49  50
ENDBRANCH  45  49
BRANCH  46  65
HETATM   65  O           1     -29.170  11.612  72.241  0.00  0.00    -0.388 OA
HETATM   66  H           1     -28.390  12.170  72.175  0.00  0.00     0.210 HD
ENDBRANCH  46  65
ENDBRANCH  39  40
ENDBRANCH  32  39
ENDBRANCH   5   6
ENDBRANCH   4   5
ENDBRANCH   1   4
BRANCH   1  67
HETATM   67  O           1     -25.133   9.967  81.551  0.00  0.00    -0.345 OA
BRANCH  67  68
HETATM   68  C           1     -24.012  10.770  81.226  0.00  0.00     0.187 C 
BRANCH  68  69
HETATM   69  C           1     -22.660  10.237  81.795  0.00  0.00     0.009 C 
HETATM   70  C           1     -22.104   9.038  80.925  0.00  0.00     0.007 C 
HETATM   71  C           1     -20.587   8.634  80.982  0.00  0.00    -0.032 C 
HETATM   72  C           1     -22.568   8.981  79.460  0.00  0.00     0.007 C 
HETATM   73  C           1     -19.992   7.969  79.660  0.00  0.00     0.026 C 
HETATM   74  C           1     -19.689   9.875  81.255  0.00  0.00     0.012 C 
HETATM   75  C           1     -20.422   7.651  82.176  0.00  0.00     0.016 C 
HETATM   76  C           1     -20.905   7.195  78.662  0.00  0.00    -0.025 C 
HETATM   77  C           1     -18.759   7.168  80.019  0.00  0.00    -0.020 C 
HETATM   78  C           1     -20.625   5.644  78.657  0.00  0.00    -0.006 C 
HETATM   79  C           1     -22.375   7.542  78.960  0.00  0.00     0.011 C 
HETATM   80  C           1     -20.678   7.780  77.231  0.00  0.00     0.017 C 
HETATM   81  C           1     -19.914   5.138  79.920  0.00  0.00    -0.046 C 
HETATM   82  C           1     -21.846   4.786  78.238  0.00  0.00     0.047 C 
HETATM   83  C           1     -19.535   5.277  77.587  0.00  0.00     0.021 C 
HETATM   84  C           1     -20.197   3.941  80.482  0.00  0.00    -0.059 C 
HETATM   85  C           1     -18.844   5.861  80.300  0.00  0.00     0.004 C 
HETATM   86  C           1     -21.442   3.137  80.120  0.00  0.00     0.031 C 
HETATM   87  C           1     -19.376   3.276  81.573  0.00  0.00     0.044 C 
HETATM   88  C           1     -21.715   3.315  78.616  0.00  0.00     0.134 C 
HETATM   89  C           1     -21.193   1.636  80.425  0.00  0.00     0.020 C 
HETATM   90  C           1     -19.742   1.229  80.124  0.00  0.00     0.010 C 
HETATM   91  C           1     -18.734   1.982  81.024  0.00  0.00    -0.044 C 
HETATM   92  C           1     -17.473   2.341  80.208  0.00  0.00     0.015 C 
HETATM   93  C           1     -18.307   1.077  82.199  0.00  0.00     0.015 C 
HETATM   94  C           1     -20.219  10.881  82.279  0.00  0.00     0.034 C 
HETATM   95  C           1     -21.594  11.357  81.828  0.00  0.00     0.135 C 
HETATM   96  C           1     -23.019   9.678  83.199  0.00  0.00     0.020 C 
BRANCH  86  97
HETATM   97  C           1     -22.634   3.656  80.954  0.00  0.00     0.180 C 
BRANCH  97  98
HETATM   98  O           1     -23.246   2.627  81.702  0.00  0.00    -0.400 OA
HETATM   99  H           1     -22.715   1.825  81.676  0.00  0.00     0.209 HD
ENDBRANCH  97  98
ENDBRANCH  86  97
BRANCH  88 100
HETATM  100  O           1     -22.898   2.646  78.241  0.00  0.00    -0.394 OA
HETATM  101  H           1     -23.618   2.913  78.815  0.00  0.00     0.210 HD
ENDBRANCH  88 100
BRANCH  95 102
HETATM  102  O           1     -22.036  12.568  82.388  0.00  0.00    -0.352 OA
BRANCH 102 103
HETATM  103  C           1     -21.604  12.972  83.674  0.00  0.00     0.291 C 
HETATM  104  O           1     -22.765  13.185  84.428  0.00  0.00    -0.351 OA
HETATM  105  C           1     -22.541  13.773  85.672  0.00  0.00     0.152 C 
HETATM  106  C           1     -22.026  15.191  85.461  0.00  0.00     0.178 C 
HETATM  107  C           1     -23.875  13.745  86.423  0.00  0.00     0.042 C 
HETATM  108  C           1     -20.696  15.150  84.718  0.00  0.00     0.189 C 
HETATM  109  C           1     -20.861  14.279  83.478  0.00  0.00     0.205 C 
BRANCH 106 110
HETATM  110  O           1     -21.866  15.805  86.719  0.00  0.00    -0.390 OA
HETATM  111  H           1     -21.114  16.400  86.698  0.00  0.00     0.210 HD
ENDBRANCH 106 110
BRANCH 108 112
HETATM  112  O           1     -20.249  16.375  84.200  0.00  0.00    -0.348 OA
BRANCH 112 113
HETATM  113  C           1     -19.037  16.903  84.681  0.00  0.00     0.292 C 
HETATM  114  O           1     -19.343  18.086  85.393  0.00  0.00    -0.348 OA
HETATM  115  C           1     -19.979  19.090  84.639  0.00  0.00     0.179 C 
HETATM  116  C           1     -19.134  19.494  83.438  0.00  0.00     0.180 C 
HETATM  117  C           1     -18.755  18.269  82.629  0.00  0.00     0.183 C 
HETATM  118  C           1     -18.112  17.243  83.532  0.00  0.00     0.204 C 
BRANCH 115 119
HETATM  119  C           1     -20.285  20.246  85.581  0.00  0.00     0.198 C 
BRANCH 119 120
HETATM  120  O           1     -20.883  21.306  84.864  0.00  0.00    -0.398 OA
HETATM  121  H           1     -20.978  22.087  85.419  0.00  0.00     0.209 HD
ENDBRANCH 119 120
ENDBRANCH 115 119
BRANCH 116 122
HETATM  122  O           1     -19.838  20.348  82.566  0.00  0.00    -0.390 OA
HETATM  123  H           1     -20.401  20.967  83.033  0.00  0.00     0.210 HD
ENDBRANCH 116 122
BRANCH 117 124
HETATM  124  O           1     -17.855  18.639  81.618  0.00  0.00    -0.390 OA
HETATM  125  H           1     -17.239  17.912  81.486  0.00  0.00     0.210 HD
ENDBRANCH 117 124
BRANCH 118 126
HETATM  126  O           1     -17.815  16.098  82.771  0.00  0.00    -0.388 OA
HETATM  127  H           1     -17.103  16.322  82.165  0.00  0.00     0.210 HD
ENDBRANCH 118 126
ENDBRANCH 112 113
ENDBRANCH 108 112
BRANCH 109 128
HETATM  128  O           1     -19.580  14.033  82.948  0.00  0.00    -0.388 OA
HETATM  129  H           1     -19.278  14.834  82.509  0.00  0.00     0.210 HD
ENDBRANCH 109 128
ENDBRANCH 102 103
ENDBRANCH  95 102
ENDBRANCH  68  69
ENDBRANCH  67  68
ENDBRANCH   1  67
TORSDOF 34
ENDMDL
MODEL 7
REMARK VINA RESULT:      -8.0     20.749     26.296
REMARK WARNING: 32 MAX_TORS EXCEEDED!!!
REMARK  34 active torsions:
REMARK  status: ('A' for Active; 'I' for Inactive)
REMARK    1  A    between atoms: O_1  and  C_25 
REMARK    2  A    between atoms: O_1  and  C_44 
REMARK    3  A    between atoms: O_2  and  C_32 
REMARK    4  A    between atoms: O_3  and  C_35 
REMARK    5  A    between atoms: O_3  and  Pt_111 
REMARK    6  A    between atoms: O_4  and  C_41 
REMARK    7  A    between atoms: O_6  and  C_45 
REMARK    8  A    between atoms: O_7  and  C_46 
REMARK    9  A    between atoms: O_7  and  C_50 
REMARK   10  A    between atoms: O_8  and  C_48 
REMARK   11  A    between atoms: O_10  and  C_51 
REMARK   12  A    between atoms: O_11  and  C_52 
REMARK   13  A    between atoms: O_12  and  C_54 
REMARK   14  A    between atoms: O_13  and  C_55 
REMARK   15  A    between atoms: C_20  and  C_35 
REMARK   16  A    between atoms: C_26  and  C_41 
REMARK   17  A    between atoms: C_53  and  C_55 
REMARK   18  A    between atoms: O_56  and  C_80 
REMARK   19  A    between atoms: O_56  and  C_99 
REMARK   20  A    between atoms: O_57  and  C_87 
REMARK   21  A    between atoms: O_58  and  C_90 
REMARK   22  A    between atoms: O_58  and  Pt_111 
REMARK   23  A    between atoms: O_59  and  C_96 
REMARK   24  A    between atoms: O_61  and  C_100 
REMARK   25  A    between atoms: O_62  and  C_101 
REMARK   26  A    between atoms: O_62  and  C_105 
REMARK   27  A    between atoms: O_63  and  C_103 
REMARK   28  A    between atoms: O_65  and  C_106 
REMARK   29  A    between atoms: O_66  and  C_107 
REMARK   30  A    between atoms: O_67  and  C_109 
REMARK   31  A    between atoms: O_68  and  C_110 
REMARK   32  A    between atoms: C_75  and  C_90 
REMARK   33  A    between atoms: C_81  and  C_96 
REMARK   34  A    between atoms: C_108  and  C_110 
ROOT
HETATM    1  Pt          1     -41.598  14.068  61.886  0.00  0.00     0.089 P 
HETATM    2  Cl          1     -43.689  13.574  62.626  0.00  0.00     0.098 C 
HETATM    3  Cl          1     -41.753  14.827  59.748  0.00  0.00     0.098 C 
ENDROOT
BRANCH   1   4
HETATM    4  O           1     -40.575  12.435  61.935  0.00  0.00    -0.345 OA
BRANCH   4   5
HETATM    5  C           1     -40.997  11.394  61.086  0.00  0.00     0.187 C 
BRANCH   5   6
HETATM    6  C           1     -39.961  11.043  59.989  0.00  0.00     0.009 C 
HETATM    7  C           1     -40.377  11.707  58.616  0.00  0.00     0.007 C 
HETATM    8  C           1     -41.259  10.851  57.653  0.00  0.00    -0.032 C 
HETATM    9  C           1     -39.198  12.393  57.882  0.00  0.00     0.007 C 
HETATM   10  C           1     -41.629  11.603  56.325  0.00  0.00     0.026 C 
HETATM   11  C           1     -40.539   9.515  57.363  0.00  0.00     0.012 C 
HETATM   12  C           1     -42.632  10.544  58.334  0.00  0.00     0.016 C 
HETATM   13  C           1     -40.639  12.652  55.748  0.00  0.00    -0.025 C 
HETATM   14  C           1     -42.293  10.740  55.269  0.00  0.00    -0.020 C 
HETATM   15  C           1     -40.596  12.607  54.183  0.00  0.00    -0.006 C 
HETATM   16  C           1     -39.253  12.369  56.354  0.00  0.00     0.011 C 
HETATM   17  C           1     -41.083  14.063  56.208  0.00  0.00     0.017 C 
HETATM   18  C           1     -41.958  12.298  53.556  0.00  0.00    -0.046 C 
HETATM   19  C           1     -39.890  13.801  53.493  0.00  0.00     0.047 C 
HETATM   20  C           1     -39.732  11.390  53.699  0.00  0.00     0.021 C 
HETATM   21  C           1     -42.435  12.988  52.495  0.00  0.00    -0.059 C 
HETATM   22  C           1     -42.538  11.179  54.024  0.00  0.00     0.004 C 
HETATM   23  C           1     -41.951  14.365  52.086  0.00  0.00     0.031 C 
HETATM   24  C           1     -43.486  12.479  51.520  0.00  0.00     0.044 C 
HETATM   25  C           1     -40.841  14.882  53.018  0.00  0.00     0.134 C 
HETATM   26  C           1     -41.480  14.110  50.649  0.00  0.00     0.020 C 
HETATM   27  C           1     -42.440  13.259  49.772  0.00  0.00     0.010 C 
HETATM   28  C           1     -42.735  11.734  50.277  0.00  0.00    -0.044 C 
HETATM   29  C           1     -43.893  10.630  50.459  0.00  0.00     0.015 C 
HETATM   30  C           1     -43.047  11.462  48.697  0.00  0.00     0.015 C 
HETATM   31  C           1     -39.459   9.149  58.395  0.00  0.00     0.034 C 
HETATM   32  C           1     -39.885   9.492  59.830  0.00  0.00     0.135 C 
HETATM   33  C           1     -38.613  11.596  60.524  0.00  0.00     0.020 C 
BRANCH  23  34
HETATM   34  C           1     -43.075  15.425  52.217  0.00  0.00     0.180 C 
BRANCH  34  35
HETATM   35  O           1     -42.913  16.334  53.284  0.00  0.00    -0.400 OA
HETATM   36  H           1     -43.755  16.444  53.735  0.00  0.00     0.209 HD
ENDBRANCH  34  35
ENDBRANCH  23  34
BRANCH  25  37
HETATM   37  O           1     -40.095  15.893  52.378  0.00  0.00    -0.394 OA
HETATM   38  H           1     -39.637  16.427  53.029  0.00  0.00     0.210 HD
ENDBRANCH  25  37
BRANCH  32  39
HETATM   39  O           1     -38.997   8.823  60.695  0.00  0.00    -0.352 OA
BRANCH  39  40
HETATM   40  C           1     -38.932   7.400  60.696  0.00  0.00     0.291 C 
HETATM   41  O           1     -37.705   7.090  60.075  0.00  0.00    -0.351 OA
HETATM   42  C           1     -37.548   5.724  59.810  0.00  0.00     0.152 C 
HETATM   43  C           1     -37.571   4.918  61.104  0.00  0.00     0.178 C 
HETATM   44  C           1     -36.241   5.527  59.040  0.00  0.00     0.042 C 
HETATM   45  C           1     -38.861   5.162  61.874  0.00  0.00     0.189 C 
HETATM   46  C           1     -39.110   6.661  62.007  0.00  0.00     0.205 C 
BRANCH  43  47
HETATM   47  O           1     -36.470   5.276  61.903  0.00  0.00    -0.390 OA
HETATM   48  H           1     -35.677   4.808  61.625  0.00  0.00     0.210 HD
ENDBRANCH  43  47
BRANCH  45  49
HETATM   49  O           1     -38.836   4.656  63.182  0.00  0.00    -0.348 OA
BRANCH  49  50
HETATM   50  C           1     -38.250   3.380  63.343  0.00  0.00     0.292 C 
HETATM   51  O           1     -37.274   3.562  64.349  0.00  0.00    -0.348 OA
HETATM   52  C           1     -37.008   2.463  65.177  0.00  0.00     0.179 C 
HETATM   53  C           1     -37.249   1.156  64.440  0.00  0.00     0.180 C 
HETATM   54  C           1     -38.713   1.034  64.048  0.00  0.00     0.183 C 
HETATM   55  C           1     -39.323   2.392  63.742  0.00  0.00     0.204 C 
BRANCH  52  56
HETATM   56  C           1     -35.577   2.645  65.672  0.00  0.00     0.198 C 
BRANCH  56  57
HETATM   57  O           1     -34.813   3.371  64.733  0.00  0.00    -0.398 OA
HETATM   58  H           1     -35.291   3.451  63.906  0.00  0.00     0.209 HD
ENDBRANCH  56  57
ENDBRANCH  52  56
BRANCH  53  59
HETATM   59  O           1     -36.937   0.039  65.237  0.00  0.00    -0.390 OA
HETATM   60  H           1     -36.318  -0.544  64.797  0.00  0.00     0.210 HD
ENDBRANCH  53  59
BRANCH  54  61
HETATM   61  O           1     -38.802   0.193  62.925  0.00  0.00    -0.390 OA
HETATM   62  H           1     -38.499  -0.685  63.171  0.00  0.00     0.210 HD
ENDBRANCH  54  61
BRANCH  55  63
HETATM   63  O           1     -40.006   2.874  64.877  0.00  0.00    -0.388 OA
HETATM   64  H           1     -39.757   3.784  65.046  0.00  0.00     0.210 HD
ENDBRANCH  55  63
ENDBRANCH  49  50
ENDBRANCH  45  49
BRANCH  46  65
HETATM   65  O           1     -40.417   6.837  62.497  0.00  0.00    -0.388 OA
HETATM   66  H           1     -40.551   6.228  63.228  0.00  0.00     0.210 HD
ENDBRANCH  46  65
ENDBRANCH  39  40
ENDBRANCH  32  39
ENDBRANCH   5   6
ENDBRANCH   4   5
ENDBRANCH   1   4
BRANCH   1  67
HETATM   67  O           1     -40.713  15.349  63.023  0.00  0.00    -0.345 OA
BRANCH  67  68
HETATM   68  C           1     -39.361  15.704  62.792  0.00  0.00     0.187 C 
BRANCH  68  69
HETATM   69  C           1     -38.914  17.012  63.514  0.00  0.00     0.009 C 
HETATM   70  C           1     -38.505  16.727  65.017  0.00  0.00     0.007 C 
HETATM   71  C           1     -37.600  17.734  65.812  0.00  0.00    -0.032 C 
HETATM   72  C           1     -38.046  15.297  65.342  0.00  0.00     0.007 C 
HETATM   73  C           1     -36.696  17.099  66.964  0.00  0.00     0.026 C 
HETATM   74  C           1     -36.603  18.459  64.863  0.00  0.00     0.012 C 
HETATM   75  C           1     -38.542  18.807  66.427  0.00  0.00     0.016 C 
HETATM   76  C           1     -37.110  15.782  67.684  0.00  0.00    -0.025 C 
HETATM   77  C           1     -36.324  18.180  67.955  0.00  0.00    -0.020 C 
HETATM   78  C           1     -37.528  16.013  69.186  0.00  0.00    -0.006 C 
HETATM   79  C           1     -38.204  15.083  66.855  0.00  0.00     0.011 C 
HETATM   80  C           1     -35.910  14.784  67.615  0.00  0.00     0.017 C 
HETATM   81  C           1     -37.922  17.463  69.504  0.00  0.00    -0.046 C 
HETATM   82  C           1     -38.523  14.958  69.732  0.00  0.00     0.047 C 
HETATM   83  C           1     -36.286  15.872  70.139  0.00  0.00     0.021 C 
HETATM   84  C           1     -38.922  17.771  70.360  0.00  0.00    -0.059 C 
HETATM   85  C           1     -37.068  18.398  69.048  0.00  0.00     0.004 C 
HETATM   86  C           1     -39.944  16.744  70.833  0.00  0.00     0.031 C 
HETATM   87  C           1     -39.204  19.161  70.903  0.00  0.00     0.044 C 
HETATM   88  C           1     -39.230  15.393  71.011  0.00  0.00     0.134 C 
HETATM   89  C           1     -40.539  17.196  72.194  0.00  0.00     0.020 C 
HETATM   90  C           1     -39.481  17.882  73.074  0.00  0.00     0.010 C 
HETATM   91  C           1     -38.951  19.184  72.428  0.00  0.00    -0.044 C 
HETATM   92  C           1     -37.437  19.320  72.694  0.00  0.00     0.015 C 
HETATM   93  C           1     -39.662  20.404  73.052  0.00  0.00     0.015 C 
HETATM   94  C           1     -37.156  18.888  63.502  0.00  0.00     0.034 C 
HETATM   95  C           1     -37.710  17.659  62.791  0.00  0.00     0.135 C 
HETATM   96  C           1     -40.184  17.906  63.530  0.00  0.00     0.020 C 
BRANCH  86  97
HETATM   97  C           1     -41.068  16.631  69.778  0.00  0.00     0.180 C 
BRANCH  97  98
HETATM   98  O           1     -42.254  16.093  70.322  0.00  0.00    -0.400 OA
HETATM   99  H           1     -42.370  16.375  71.234  0.00  0.00     0.209 HD
ENDBRANCH  97  98
ENDBRANCH  86  97
BRANCH  88 100
HETATM  100  O           1     -40.147  14.388  71.383  0.00  0.00    -0.394 OA
HETATM  101  H           1     -40.144  14.283  72.336  0.00  0.00     0.210 HD
ENDBRANCH  88 100
BRANCH  95 102
HETATM  102  O           1     -37.857  17.774  61.399  0.00  0.00    -0.352 OA
BRANCH 102 103
HETATM  103  C           1     -37.284  18.860  60.695  0.00  0.00     0.291 C 
HETATM  104  O           1     -38.350  19.681  60.308  0.00  0.00    -0.351 OA
HETATM  105  C           1     -37.994  20.711  59.437  0.00  0.00     0.152 C 
HETATM  106  C           1     -37.554  20.103  58.111  0.00  0.00     0.178 C 
HETATM  107  C           1     -39.225  21.609  59.285  0.00  0.00     0.042 C 
HETATM  108  C           1     -36.324  19.229  58.329  0.00  0.00     0.189 C 
HETATM  109  C           1     -36.612  18.265  59.474  0.00  0.00     0.205 C 
BRANCH 106 110
HETATM  110  O           1     -37.261  21.146  57.212  0.00  0.00    -0.390 OA
HETATM  111  H           1     -36.849  21.875  57.681  0.00  0.00     0.210 HD
ENDBRANCH 106 110
BRANCH 108 112
HETATM  112  O           1     -35.983  18.381  57.265  0.00  0.00    -0.348 OA
BRANCH 112 113
HETATM  113  C           1     -36.892  17.372  56.895  0.00  0.00     0.292 C 
HETATM  114  O           1     -36.225  16.132  57.031  0.00  0.00    -0.348 OA
HETATM  115  C           1     -35.072  15.983  56.238  0.00  0.00     0.179 C 
HETATM  116  C           1     -35.394  16.160  54.760  0.00  0.00     0.180 C 
HETATM  117  C           1     -36.123  17.471  54.538  0.00  0.00     0.183 C 
HETATM  118  C           1     -37.322  17.547  55.454  0.00  0.00     0.204 C 
BRANCH 115 119
HETATM  119  C           1     -34.462  14.627  56.566  0.00  0.00     0.198 C 
BRANCH 119 120
HETATM  120  O           1     -33.318  14.796  57.375  0.00  0.00    -0.398 OA
HETATM  121  H           1     -32.551  15.030  56.843  0.00  0.00     0.209 HD
ENDBRANCH 119 120
ENDBRANCH 115 119
BRANCH 116 122
HETATM  122  O           1     -34.227  16.213  53.973  0.00  0.00    -0.390 OA
HETATM  123  H           1     -33.428  16.260  54.501  0.00  0.00     0.210 HD
ENDBRANCH 116 122
BRANCH 117 124
HETATM  124  O           1     -36.545  17.548  53.201  0.00  0.00    -0.390 OA
HETATM  125  H           1     -36.346  16.710  52.776  0.00  0.00     0.210 HD
ENDBRANCH 117 124
BRANCH 118 126
HETATM  126  O           1     -37.953  18.790  55.266  0.00  0.00    -0.388 OA
HETATM  127  H           1     -38.903  18.651  55.321  0.00  0.00     0.210 HD
ENDBRANCH 118 126
ENDBRANCH 112 113
ENDBRANCH 108 112
BRANCH 109 128
HETATM  128  O           1     -35.399  17.652  59.839  0.00  0.00    -0.388 OA
HETATM  129  H           1     -35.580  17.021  60.541  0.00  0.00     0.210 HD
ENDBRANCH 109 128
ENDBRANCH 102 103
ENDBRANCH  95 102
ENDBRANCH  68  69
ENDBRANCH  67  68
ENDBRANCH   1  67
TORSDOF 34
ENDMDL
MODEL 8
REMARK VINA RESULT:      -8.0     27.535     34.115
REMARK WARNING: 32 MAX_TORS EXCEEDED!!!
REMARK  34 active torsions:
REMARK  status: ('A' for Active; 'I' for Inactive)
REMARK    1  A    between atoms: O_1  and  C_25 
REMARK    2  A    between atoms: O_1  and  C_44 
REMARK    3  A    between atoms: O_2  and  C_32 
REMARK    4  A    between atoms: O_3  and  C_35 
REMARK    5  A    between atoms: O_3  and  Pt_111 
REMARK    6  A    between atoms: O_4  and  C_41 
REMARK    7  A    between atoms: O_6  and  C_45 
REMARK    8  A    between atoms: O_7  and  C_46 
REMARK    9  A    between atoms: O_7  and  C_50 
REMARK   10  A    between atoms: O_8  and  C_48 
REMARK   11  A    between atoms: O_10  and  C_51 
REMARK   12  A    between atoms: O_11  and  C_52 
REMARK   13  A    between atoms: O_12  and  C_54 
REMARK   14  A    between atoms: O_13  and  C_55 
REMARK   15  A    between atoms: C_20  and  C_35 
REMARK   16  A    between atoms: C_26  and  C_41 
REMARK   17  A    between atoms: C_53  and  C_55 
REMARK   18  A    between atoms: O_56  and  C_80 
REMARK   19  A    between atoms: O_56  and  C_99 
REMARK   20  A    between atoms: O_57  and  C_87 
REMARK   21  A    between atoms: O_58  and  C_90 
REMARK   22  A    between atoms: O_58  and  Pt_111 
REMARK   23  A    between atoms: O_59  and  C_96 
REMARK   24  A    between atoms: O_61  and  C_100 
REMARK   25  A    between atoms: O_62  and  C_101 
REMARK   26  A    between atoms: O_62  and  C_105 
REMARK   27  A    between atoms: O_63  and  C_103 
REMARK   28  A    between atoms: O_65  and  C_106 
REMARK   29  A    between atoms: O_66  and  C_107 
REMARK   30  A    between atoms: O_67  and  C_109 
REMARK   31  A    between atoms: O_68  and  C_110 
REMARK   32  A    between atoms: C_75  and  C_90 
REMARK   33  A    between atoms: C_81  and  C_96 
REMARK   34  A    between atoms: C_108  and  C_110 
ROOT
HETATM    1  Pt          1     -25.019  21.696  81.966  0.00  0.00     0.089 P 
HETATM    2  Cl          1     -22.921  21.381  82.779  0.00  0.00     0.098 C 
HETATM    3  Cl          1     -26.511  21.039  83.551  0.00  0.00     0.098 C 
ENDROOT
BRANCH   1   4
HETATM    4  O           1     -25.194  20.590  80.396  0.00  0.00    -0.345 OA
BRANCH   4   5
HETATM    5  C           1     -25.103  19.198  80.585  0.00  0.00     0.187 C 
BRANCH   5   6
HETATM    6  C           1     -24.398  18.467  79.415  0.00  0.00     0.009 C 
HETATM    7  C           1     -25.423  17.525  78.666  0.00  0.00     0.007 C 
HETATM    8  C           1     -25.514  16.046  79.157  0.00  0.00    -0.032 C 
HETATM    9  C           1     -25.343  17.631  77.123  0.00  0.00     0.007 C 
HETATM   10  C           1     -26.569  15.196  78.360  0.00  0.00     0.026 C 
HETATM   11  C           1     -24.109  15.405  79.092  0.00  0.00     0.012 C 
HETATM   12  C           1     -26.013  16.014  80.638  0.00  0.00     0.016 C 
HETATM   13  C           1     -26.851  15.542  76.872  0.00  0.00    -0.025 C 
HETATM   14  C           1     -26.536  13.708  78.649  0.00  0.00    -0.020 C 
HETATM   15  C           1     -27.090  14.254  76.014  0.00  0.00    -0.006 C 
HETATM   16  C           1     -25.652  16.351  76.346  0.00  0.00     0.011 C 
HETATM   17  C           1     -28.107  16.446  76.800  0.00  0.00     0.017 C 
HETATM   18  C           1     -27.830  13.155  76.781  0.00  0.00    -0.046 C 
HETATM   19  C           1     -27.681  14.484  74.602  0.00  0.00     0.047 C 
HETATM   20  C           1     -25.722  13.558  75.689  0.00  0.00     0.021 C 
HETATM   21  C           1     -28.854  12.460  76.233  0.00  0.00    -0.059 C 
HETATM   22  C           1     -27.259  12.818  77.950  0.00  0.00     0.004 C 
HETATM   23  C           1     -29.668  12.936  75.047  0.00  0.00     0.031 C 
HETATM   24  C           1     -29.315  11.082  76.681  0.00  0.00     0.044 C 
HETATM   25  C           1     -29.185  14.302  74.531  0.00  0.00     0.134 C 
HETATM   26  C           1     -29.457  11.791  74.050  0.00  0.00     0.020 C 
HETATM   27  C           1     -29.583  10.359  74.640  0.00  0.00     0.010 C 
HETATM   28  C           1     -28.520   9.952  75.810  0.00  0.00    -0.044 C 
HETATM   29  C           1     -28.377   9.202  77.228  0.00  0.00     0.015 C 
HETATM   30  C           1     -28.812   8.429  75.299  0.00  0.00     0.015 C 
HETATM   31  C           1     -22.959  16.425  79.050  0.00  0.00     0.034 C 
HETATM   32  C           1     -23.210  17.625  79.974  0.00  0.00     0.135 C 
HETATM   33  C           1     -23.868  19.604  78.499  0.00  0.00     0.020 C 
BRANCH  23  34
HETATM   34  C           1     -31.149  13.185  75.437  0.00  0.00     0.180 C 
BRANCH  34  35
HETATM   35  O           1     -31.372  14.336  76.221  0.00  0.00    -0.400 OA
HETATM   36  H           1     -32.315  14.515  76.258  0.00  0.00     0.209 HD
ENDBRANCH  34  35
ENDBRANCH  23  34
BRANCH  25  37
HETATM   37  O           1     -29.603  14.500  73.199  0.00  0.00    -0.394 OA
HETATM   38  H           1     -28.901  14.908  72.689  0.00  0.00     0.210 HD
ENDBRANCH  25  37
BRANCH  32  39
HETATM   39  O           1     -21.982  18.301  80.115  0.00  0.00    -0.352 OA
BRANCH  39  40
HETATM   40  C           1     -21.252  18.217  81.335  0.00  0.00     0.291 C 
HETATM   41  O           1     -22.218  17.930  82.321  0.00  0.00    -0.351 OA
HETATM   42  C           1     -21.715  17.999  83.625  0.00  0.00     0.152 C 
HETATM   43  C           1     -20.603  16.977  83.829  0.00  0.00     0.178 C 
HETATM   44  C           1     -22.873  17.783  84.602  0.00  0.00     0.042 C 
HETATM   45  C           1     -19.483  17.184  82.820  0.00  0.00     0.189 C 
HETATM   46  C           1     -20.064  17.280  81.413  0.00  0.00     0.205 C 
BRANCH  43  47
HETATM   47  O           1     -21.125  15.677  83.694  0.00  0.00    -0.390 OA
HETATM   48  H           1     -20.757  15.088  84.358  0.00  0.00     0.210 HD
ENDBRANCH  43  47
BRANCH  45  49
HETATM   49  O           1     -18.558  16.129  82.786  0.00  0.00    -0.348 OA
BRANCH  49  50
HETATM   50  C           1     -18.073  15.690  84.038  0.00  0.00     0.292 C 
HETATM   51  O           1     -18.207  14.283  83.997  0.00  0.00    -0.348 OA
HETATM   52  C           1     -17.267  13.536  84.721  0.00  0.00     0.179 C 
HETATM   53  C           1     -16.764  14.317  85.924  0.00  0.00     0.180 C 
HETATM   54  C           1     -16.036  15.572  85.471  0.00  0.00     0.183 C 
HETATM   55  C           1     -16.636  16.134  84.193  0.00  0.00     0.204 C 
BRANCH  52  56
HETATM   56  C           1     -17.954  12.222  85.072  0.00  0.00     0.198 C 
BRANCH  56  57
HETATM   57  O           1     -18.278  12.179  86.445  0.00  0.00    -0.398 OA
HETATM   58  H           1     -19.223  12.284  86.568  0.00  0.00     0.209 HD
ENDBRANCH  56  57
ENDBRANCH  52  56
BRANCH  53  59
HETATM   59  O           1     -15.858  13.565  86.695  0.00  0.00    -0.390 OA
HETATM   60  H           1     -15.199  13.140  86.146  0.00  0.00     0.210 HD
ENDBRANCH  53  59
BRANCH  54  61
HETATM   61  O           1     -16.109  16.523  86.505  0.00  0.00    -0.390 OA
HETATM   62  H           1     -16.817  16.274  87.105  0.00  0.00     0.210 HD
ENDBRANCH  54  61
BRANCH  55  63
HETATM   63  O           1     -15.886  15.695  83.083  0.00  0.00    -0.388 OA
HETATM   64  H           1     -15.494  16.447  82.635  0.00  0.00     0.210 HD
ENDBRANCH  55  63
ENDBRANCH  49  50
ENDBRANCH  45  49
BRANCH  46  65
HETATM   65  O           1     -19.037  17.715  80.554  0.00  0.00    -0.388 OA
HETATM   66  H           1     -19.267  17.464  79.655  0.00  0.00     0.210 HD
ENDBRANCH  46  65
ENDBRANCH  39  40
ENDBRANCH  32  39
ENDBRANCH   5   6
ENDBRANCH   4   5
ENDBRANCH   1   4
BRANCH   1  67
HETATM   67  O           1     -25.321  23.524  81.432  0.00  0.00    -0.345 OA
BRANCH  67  68
HETATM   68  C           1     -26.635  24.051  81.376  0.00  0.00     0.187 C 
BRANCH  68  69
HETATM   69  C           1     -27.000  24.707  80.009  0.00  0.00     0.009 C 
HETATM   70  C           1     -28.479  24.346  79.577  0.00  0.00     0.007 C 
HETATM   71  C           1     -29.248  25.219  78.521  0.00  0.00    -0.032 C 
HETATM   72  C           1     -29.454  23.980  80.707  0.00  0.00     0.007 C 
HETATM   73  C           1     -30.837  25.245  78.662  0.00  0.00     0.026 C 
HETATM   74  C           1     -28.806  26.709  78.600  0.00  0.00     0.012 C 
HETATM   75  C           1     -28.862  24.679  77.115  0.00  0.00     0.016 C 
HETATM   76  C           1     -31.611  24.063  79.317  0.00  0.00    -0.025 C 
HETATM   77  C           1     -31.446  25.640  77.334  0.00  0.00    -0.020 C 
HETATM   78  C           1     -32.475  23.250  78.279  0.00  0.00    -0.006 C 
HETATM   79  C           1     -30.613  23.182  80.091  0.00  0.00     0.011 C 
HETATM   80  C           1     -32.533  24.638  80.439  0.00  0.00     0.017 C 
HETATM   81  C           1     -32.028  23.434  76.821  0.00  0.00    -0.046 C 
HETATM   82  C           1     -32.715  21.772  78.680  0.00  0.00     0.047 C 
HETATM   83  C           1     -33.927  23.842  78.176  0.00  0.00     0.021 C 
HETATM   84  C           1     -32.052  22.425  75.922  0.00  0.00    -0.059 C 
HETATM   85  C           1     -31.822  24.710  76.445  0.00  0.00     0.004 C 
HETATM   86  C           1     -32.212  20.964  76.332  0.00  0.00     0.031 C 
HETATM   87  C           1     -31.860  22.588  74.425  0.00  0.00     0.044 C 
HETATM   88  C           1     -33.182  20.896  77.524  0.00  0.00     0.134 C 
HETATM   89  C           1     -32.798  20.156  75.142  0.00  0.00     0.020 C 
HETATM   90  C           1     -33.820  20.982  74.345  0.00  0.00     0.010 C 
HETATM   91  C           1     -33.171  22.225  73.690  0.00  0.00    -0.044 C 
HETATM   92  C           1     -34.145  23.420  73.758  0.00  0.00     0.015 C 
HETATM   93  C           1     -32.868  21.933  72.205  0.00  0.00     0.015 C 
HETATM   94  C           1     -27.311  26.960  78.810  0.00  0.00     0.034 C 
HETATM   95  C           1     -26.871  26.247  80.083  0.00  0.00     0.135 C 
HETATM   96  C           1     -26.033  24.050  78.987  0.00  0.00     0.020 C 
BRANCH  86  97
HETATM   97  C           1     -30.829  20.398  76.723  0.00  0.00     0.180 C 
BRANCH  97  98
HETATM   98  O           1     -30.811  18.987  76.718  0.00  0.00    -0.400 OA
HETATM   99  H           1     -31.666  18.634  76.986  0.00  0.00     0.209 HD
ENDBRANCH  97  98
ENDBRANCH  86  97
BRANCH  88 100
HETATM  100  O           1     -33.312  19.571  77.987  0.00  0.00    -0.394 OA
HETATM  101  H           1     -32.613  19.376  78.613  0.00  0.00     0.210 HD
ENDBRANCH  88 100
BRANCH  95 102
HETATM  102  O           1     -25.674  26.706  80.658  0.00  0.00    -0.352 OA
BRANCH 102 103
HETATM  103  C           1     -25.691  27.656  81.707  0.00  0.00     0.291 C 
HETATM  104  O           1     -26.791  28.487  81.466  0.00  0.00    -0.351 OA
HETATM  105  C           1     -26.859  29.604  82.297  0.00  0.00     0.152 C 
HETATM  106  C           1     -25.684  30.522  81.985  0.00  0.00     0.178 C 
HETATM  107  C           1     -28.209  30.276  82.028  0.00  0.00     0.042 C 
HETATM  108  C           1     -24.375  29.800  82.279  0.00  0.00     0.189 C 
HETATM  109  C           1     -24.403  28.444  81.583  0.00  0.00     0.205 C 
BRANCH 106 110
HETATM  110  O           1     -25.793  31.681  82.777  0.00  0.00    -0.390 OA
HETATM  111  H           1     -25.455  31.507  83.658  0.00  0.00     0.210 HD
ENDBRANCH 106 110
BRANCH 108 112
HETATM  112  O           1     -23.216  30.406  81.771  0.00  0.00    -0.348 OA
BRANCH 112 113
HETATM  113  C           1     -22.434  31.189  82.639  0.00  0.00     0.292 C 
HETATM  114  O           1     -22.178  32.418  81.985  0.00  0.00    -0.348 OA
HETATM  115  C           1     -21.487  32.311  80.763  0.00  0.00     0.179 C 
HETATM  116  C           1     -20.147  31.612  80.948  0.00  0.00     0.180 C 
HETATM  117  C           1     -20.342  30.286  81.656  0.00  0.00     0.183 C 
HETATM  118  C           1     -21.118  30.503  82.935  0.00  0.00     0.204 C 
BRANCH 115 119
HETATM  119  C           1     -21.364  33.714  80.184  0.00  0.00     0.198 C 
BRANCH 119 120
HETATM  120  O           1     -20.029  33.959  79.795  0.00  0.00    -0.398 OA
HETATM  121  H           1     -19.878  34.900  79.652  0.00  0.00     0.209 HD
ENDBRANCH 119 120
ENDBRANCH 115 119
BRANCH 116 122
HETATM  122  O           1     -19.534  31.320  79.713  0.00  0.00    -0.390 OA
HETATM  123  H           1     -19.286  30.397  79.635  0.00  0.00     0.210 HD
ENDBRANCH 116 122
BRANCH 117 124
HETATM  124  O           1     -19.089  29.728  81.954  0.00  0.00    -0.390 OA
HETATM  125  H           1     -19.199  29.123  82.692  0.00  0.00     0.210 HD
ENDBRANCH 117 124
BRANCH 118 126
HETATM  126  O           1     -21.330  29.255  83.549  0.00  0.00    -0.388 OA
HETATM  127  H           1     -21.239  28.575  82.875  0.00  0.00     0.210 HD
ENDBRANCH 118 126
ENDBRANCH 112 113
ENDBRANCH 108 112
BRANCH 109 128
HETATM  128  O           1     -23.321  27.686  82.069  0.00  0.00    -0.388 OA
HETATM  129  H           1     -23.462  26.767  81.820  0.00  0.00     0.210 HD
ENDBRANCH 109 128
ENDBRANCH 102 103
ENDBRANCH  95 102
ENDBRANCH  68  69
ENDBRANCH  67  68
ENDBRANCH   1  67
TORSDOF 34
ENDMDL
MODEL 9
REMARK VINA RESULT:      -7.9     22.647     29.790
REMARK WARNING: 32 MAX_TORS EXCEEDED!!!
REMARK  34 active torsions:
REMARK  status: ('A' for Active; 'I' for Inactive)
REMARK    1  A    between atoms: O_1  and  C_25 
REMARK    2  A    between atoms: O_1  and  C_44 
REMARK    3  A    between atoms: O_2  and  C_32 
REMARK    4  A    between atoms: O_3  and  C_35 
REMARK    5  A    between atoms: O_3  and  Pt_111 
REMARK    6  A    between atoms: O_4  and  C_41 
REMARK    7  A    between atoms: O_6  and  C_45 
REMARK    8  A    between atoms: O_7  and  C_46 
REMARK    9  A    between atoms: O_7  and  C_50 
REMARK   10  A    between atoms: O_8  and  C_48 
REMARK   11  A    between atoms: O_10  and  C_51 
REMARK   12  A    between atoms: O_11  and  C_52 
REMARK   13  A    between atoms: O_12  and  C_54 
REMARK   14  A    between atoms: O_13  and  C_55 
REMARK   15  A    between atoms: C_20  and  C_35 
REMARK   16  A    between atoms: C_26  and  C_41 
REMARK   17  A    between atoms: C_53  and  C_55 
REMARK   18  A    between atoms: O_56  and  C_80 
REMARK   19  A    between atoms: O_56  and  C_99 
REMARK   20  A    between atoms: O_57  and  C_87 
REMARK   21  A    between atoms: O_58  and  C_90 
REMARK   22  A    between atoms: O_58  and  Pt_111 
REMARK   23  A    between atoms: O_59  and  C_96 
REMARK   24  A    between atoms: O_61  and  C_100 
REMARK   25  A    between atoms: O_62  and  C_101 
REMARK   26  A    between atoms: O_62  and  C_105 
REMARK   27  A    between atoms: O_63  and  C_103 
REMARK   28  A    between atoms: O_65  and  C_106 
REMARK   29  A    between atoms: O_66  and  C_107 
REMARK   30  A    between atoms: O_67  and  C_109 
REMARK   31  A    between atoms: O_68  and  C_110 
REMARK   32  A    between atoms: C_75  and  C_90 
REMARK   33  A    between atoms: C_81  and  C_96 
REMARK   34  A    between atoms: C_108  and  C_110 
ROOT
HETATM    1  Pt          1     -42.172  18.452  48.736  0.00  0.00     0.089 P 
HETATM    2  Cl          1     -43.972  17.080  48.943  0.00  0.00     0.098 C 
HETATM    3  Cl          1     -42.912  20.524  48.157  0.00  0.00     0.098 C 
ENDROOT
BRANCH   1   4
HETATM    4  O           1     -41.064  17.731  47.333  0.00  0.00    -0.345 OA
BRANCH   4   5
HETATM    5  C           1     -40.127  18.605  46.750  0.00  0.00     0.187 C 
BRANCH   5   6
HETATM    6  C           1     -38.869  17.880  46.209  0.00  0.00     0.009 C 
HETATM    7  C           1     -37.649  18.884  46.144  0.00  0.00     0.007 C 
HETATM    8  C           1     -37.433  19.649  44.801  0.00  0.00    -0.032 C 
HETATM    9  C           1     -36.333  18.290  46.703  0.00  0.00     0.007 C 
HETATM   10  C           1     -36.207  20.630  44.841  0.00  0.00     0.026 C 
HETATM   11  C           1     -37.297  18.624  43.652  0.00  0.00     0.012 C 
HETATM   12  C           1     -38.667  20.565  44.514  0.00  0.00     0.016 C 
HETATM   13  C           1     -34.992  20.286  45.746  0.00  0.00    -0.025 C 
HETATM   14  C           1     -35.824  21.227  43.500  0.00  0.00    -0.020 C 
HETATM   15  C           1     -33.636  20.689  45.072  0.00  0.00    -0.006 C 
HETATM   16  C           1     -35.043  18.777  46.042  0.00  0.00     0.011 C 
HETATM   17  C           1     -35.140  21.042  47.090  0.00  0.00     0.017 C 
HETATM   18  C           1     -33.738  21.975  44.248  0.00  0.00    -0.046 C 
HETATM   19  C           1     -32.395  20.681  45.998  0.00  0.00     0.047 C 
HETATM   20  C           1     -33.240  19.634  43.980  0.00  0.00     0.021 C 
HETATM   21  C           1     -32.805  22.952  44.321  0.00  0.00    -0.059 C 
HETATM   22  C           1     -34.715  21.962  43.325  0.00  0.00     0.004 C 
HETATM   23  C           1     -31.839  23.123  45.477  0.00  0.00     0.031 C 
HETATM   24  C           1     -32.541  23.993  43.244  0.00  0.00     0.044 C 
HETATM   25  C           1     -32.040  22.046  46.556  0.00  0.00     0.134 C 
HETATM   26  C           1     -30.486  23.035  44.761  0.00  0.00     0.020 C 
HETATM   27  C           1     -30.374  23.846  43.441  0.00  0.00     0.010 C 
HETATM   28  C           1     -31.390  23.426  42.234  0.00  0.00    -0.044 C 
HETATM   29  C           1     -32.348  24.015  41.082  0.00  0.00     0.015 C 
HETATM   30  C           1     -30.234  24.069  41.276  0.00  0.00     0.015 C 
HETATM   31  C           1     -37.865  17.234  43.984  0.00  0.00     0.034 C 
HETATM   32  C           1     -39.171  17.314  44.787  0.00  0.00     0.135 C 
HETATM   33  C           1     -38.620  16.718  47.209  0.00  0.00     0.020 C 
BRANCH  23  34
HETATM   34  C           1     -32.084  24.457  46.229  0.00  0.00     0.180 C 
BRANCH  34  35
HETATM   35  O           1     -31.009  24.892  47.033  0.00  0.00    -0.400 OA
HETATM   36  H           1     -30.652  25.706  46.668  0.00  0.00     0.209 HD
ENDBRANCH  34  35
ENDBRANCH  23  34
BRANCH  25  37
HETATM   37  O           1     -30.880  21.923  47.348  0.00  0.00    -0.394 OA
HETATM   38  H           1     -30.828  21.042  47.724  0.00  0.00     0.210 HD
ENDBRANCH  25  37
BRANCH  32  39
HETATM   39  O           1     -39.763  16.037  44.740  0.00  0.00    -0.352 OA
BRANCH  39  40
HETATM   40  C           1     -41.075  15.873  44.211  0.00  0.00     0.291 C 
HETATM   41  O           1     -40.883  15.477  42.872  0.00  0.00    -0.351 OA
HETATM   42  C           1     -42.068  15.452  42.127  0.00  0.00     0.152 C 
HETATM   43  C           1     -43.054  14.450  42.715  0.00  0.00     0.178 C 
HETATM   44  C           1     -41.720  15.121  40.674  0.00  0.00     0.042 C 
HETATM   45  C           1     -43.354  14.774  44.172  0.00  0.00     0.189 C 
HETATM   46  C           1     -42.049  14.968  44.939  0.00  0.00     0.205 C 
BRANCH  43  47
HETATM   47  O           1     -42.521  13.151  42.620  0.00  0.00    -0.390 OA
HETATM   48  H           1     -43.194  12.524  42.339  0.00  0.00     0.210 HD
ENDBRANCH  43  47
BRANCH  45  49
HETATM   49  O           1     -44.047  13.753  44.841  0.00  0.00    -0.348 OA
BRANCH  49  50
HETATM   50  C           1     -45.061  13.105  44.102  0.00  0.00     0.292 C 
HETATM   51  O           1     -44.541  11.817  43.839  0.00  0.00    -0.348 OA
HETATM   52  C           1     -45.468  10.769  43.741  0.00  0.00     0.179 C 
HETATM   53  C           1     -46.808  11.275  43.234  0.00  0.00     0.180 C 
HETATM   54  C           1     -47.406  12.265  44.221  0.00  0.00     0.183 C 
HETATM   55  C           1     -46.326  13.066  44.929  0.00  0.00     0.204 C 
BRANCH  52  56
HETATM   56  C           1     -44.819   9.716  42.849  0.00  0.00     0.198 C 
BRANCH  56  57
HETATM   57  O           1     -43.949  10.319  41.916  0.00  0.00    -0.398 OA
HETATM   58  H           1     -44.281  10.200  41.025  0.00  0.00     0.209 HD
ENDBRANCH  56  57
ENDBRANCH  52  56
BRANCH  53  59
HETATM   59  O           1     -47.737  10.229  43.078  0.00  0.00    -0.390 OA
HETATM   60  H           1     -48.392  10.235  43.777  0.00  0.00     0.210 HD
ENDBRANCH  53  59
BRANCH  54  61
HETATM   61  O           1     -48.270  13.123  43.518  0.00  0.00    -0.390 OA
HETATM   62  H           1     -47.753  13.838  43.135  0.00  0.00     0.210 HD
ENDBRANCH  54  61
BRANCH  55  63
HETATM   63  O           1     -46.049  12.486  46.183  0.00  0.00    -0.388 OA
HETATM   64  H           1     -45.657  13.138  46.767  0.00  0.00     0.210 HD
ENDBRANCH  55  63
ENDBRANCH  49  50
ENDBRANCH  45  49
BRANCH  46  65
HETATM   65  O           1     -42.369  15.504  46.201  0.00  0.00    -0.388 OA
HETATM   66  H           1     -42.030  16.401  46.244  0.00  0.00     0.210 HD
ENDBRANCH  46  65
ENDBRANCH  39  40
ENDBRANCH  32  39
ENDBRANCH   5   6
ENDBRANCH   4   5
ENDBRANCH   1   4
BRANCH   1  67
HETATM   67  O           1     -41.117  18.509  50.348  0.00  0.00    -0.345 OA
BRANCH  67  68
HETATM   68  C           1     -40.214  17.460  50.655  0.00  0.00     0.187 C 
BRANCH  68  69
HETATM   69  C           1     -40.569  16.675  51.956  0.00  0.00     0.009 C 
HETATM   70  C           1     -41.361  15.345  51.624  0.00  0.00     0.007 C 
HETATM   71  C           1     -41.430  14.167  52.661  0.00  0.00    -0.032 C 
HETATM   72  C           1     -41.146  14.750  50.224  0.00  0.00     0.007 C 
HETATM   73  C           1     -41.596  12.705  52.044  0.00  0.00     0.026 C 
HETATM   74  C           1     -40.135  14.103  53.520  0.00  0.00     0.012 C 
HETATM   75  C           1     -42.623  14.466  53.613  0.00  0.00     0.016 C 
HETATM   76  C           1     -42.271  12.483  50.658  0.00  0.00    -0.025 C 
HETATM   77  C           1     -42.176  11.785  53.097  0.00  0.00    -0.020 C 
HETATM   78  C           1     -43.673  11.771  50.769  0.00  0.00    -0.006 C 
HETATM   79  C           1     -42.336  13.829  49.914  0.00  0.00     0.011 C 
HETATM   80  C           1     -41.310  11.627  49.773  0.00  0.00     0.017 C 
HETATM   81  C           1     -44.316  11.881  52.160  0.00  0.00    -0.046 C 
HETATM   82  C           1     -44.640  12.100  49.603  0.00  0.00     0.047 C 
HETATM   83  C           1     -43.515  10.211  50.684  0.00  0.00     0.021 C 
HETATM   84  C           1     -45.647  12.037  52.333  0.00  0.00    -0.059 C 
HETATM   85  C           1     -43.498  11.591  53.189  0.00  0.00     0.004 C 
HETATM   86  C           1     -46.582  12.436  51.195  0.00  0.00     0.031 C 
HETATM   87  C           1     -46.373  11.910  53.661  0.00  0.00     0.044 C 
HETATM   88  C           1     -46.095  11.758  49.904  0.00  0.00     0.134 C 
HETATM   89  C           1     -48.022  11.956  51.519  0.00  0.00     0.020 C 
HETATM   90  C           1     -48.018  10.601  52.245  0.00  0.00     0.010 C 
HETATM   91  C           1     -47.317  10.687  53.622  0.00  0.00    -0.044 C 
HETATM   92  C           1     -46.501   9.401  53.873  0.00  0.00     0.015 C 
HETATM   93  C           1     -48.375  10.814  54.738  0.00  0.00     0.015 C 
HETATM   94  C           1     -39.558  15.446  53.975  0.00  0.00     0.034 C 
HETATM   95  C           1     -39.291  16.304  52.744  0.00  0.00     0.135 C 
HETATM   96  C           1     -41.528  17.617  52.734  0.00  0.00     0.020 C 
BRANCH  86  97
HETATM   97  C           1     -46.560  13.974  51.044  0.00  0.00     0.180 C 
BRANCH  97  98
HETATM   98  O           1     -47.700  14.457  50.366  0.00  0.00    -0.400 OA
HETATM   99  H           1     -47.451  14.885  49.541  0.00  0.00     0.209 HD
ENDBRANCH  97  98
ENDBRANCH  86  97
BRANCH  88 100
HETATM  100  O           1     -46.886  12.149  48.805  0.00  0.00    -0.394 OA
HETATM  101  H           1     -46.627  11.654  48.026  0.00  0.00     0.210 HD
ENDBRANCH  88 100
BRANCH  95 102
HETATM  102  O           1     -38.386  17.363  52.921  0.00  0.00    -0.352 OA
BRANCH 102 103
HETATM  103  C           1     -37.094  17.132  53.451  0.00  0.00     0.291 C 
HETATM  104  O           1     -36.950  15.742  53.543  0.00  0.00    -0.351 OA
HETATM  105  C           1     -35.806  15.327  54.223  0.00  0.00     0.152 C 
HETATM  106  C           1     -35.926  15.739  55.684  0.00  0.00     0.178 C 
HETATM  107  C           1     -35.715  13.807  54.053  0.00  0.00     0.042 C 
HETATM  108  C           1     -36.004  17.257  55.786  0.00  0.00     0.189 C 
HETATM  109  C           1     -37.087  17.751  54.834  0.00  0.00     0.205 C 
BRANCH 106 110
HETATM  110  O           1     -34.800  15.259  56.382  0.00  0.00    -0.390 OA
HETATM  111  H           1     -34.734  15.695  57.234  0.00  0.00     0.210 HD
ENDBRANCH 106 110
BRANCH 108 112
HETATM  112  O           1     -36.406  17.766  57.031  0.00  0.00    -0.348 OA
BRANCH 112 113
HETATM  113  C           1     -35.473  18.500  57.786  0.00  0.00     0.292 C 
HETATM  114  O           1     -35.147  17.724  58.924  0.00  0.00    -0.348 OA
HETATM  115  C           1     -36.231  17.411  59.766  0.00  0.00     0.179 C 
HETATM  116  C           1     -36.921  18.673  60.265  0.00  0.00     0.180 C 
HETATM  117  C           1     -37.293  19.563  59.096  0.00  0.00     0.183 C 
HETATM  118  C           1     -36.074  19.813  58.240  0.00  0.00     0.204 C 
BRANCH 115 119
HETATM  119  C           1     -35.700  16.526  60.885  0.00  0.00     0.198 C 
BRANCH 119 120
HETATM  120  O           1     -35.817  17.194  62.124  0.00  0.00    -0.398 OA
HETATM  121  H           1     -35.180  17.913  62.190  0.00  0.00     0.209 HD
ENDBRANCH 119 120
ENDBRANCH 115 119
BRANCH 116 122
HETATM  122  O           1     -38.121  18.379  60.943  0.00  0.00    -0.390 OA
HETATM  123  H           1     -38.415  17.479  60.797  0.00  0.00     0.210 HD
ENDBRANCH 116 122
BRANCH 117 124
HETATM  124  O           1     -37.788  20.785  59.580  0.00  0.00    -0.390 OA
HETATM  125  H           1     -37.821  20.734  60.539  0.00  0.00     0.210 HD
ENDBRANCH 117 124
BRANCH 118 126
HETATM  126  O           1     -36.452  20.599  57.137  0.00  0.00    -0.388 OA
HETATM  127  H           1     -36.360  20.062  56.345  0.00  0.00     0.210 HD
ENDBRANCH 118 126
ENDBRANCH 112 113
ENDBRANCH 108 112
BRANCH 109 128
HETATM  128  O           1     -36.975  19.151  54.738  0.00  0.00    -0.388 OA
HETATM  129  H           1     -36.370  19.355  54.019  0.00  0.00     0.210 HD
ENDBRANCH 109 128
ENDBRANCH 102 103
ENDBRANCH  95 102
ENDBRANCH  68  69
ENDBRANCH  67  68
ENDBRANCH   1  67
TORSDOF 34
ENDMDL
