MODEL 1
REMARK VINA RESULT:      -9.1      0.000      0.000
REMARK WARNING: 32 MAX_TORS EXCEEDED!!!
REMARK  42 active torsions:
REMARK  status: ('A' for Active; 'I' for Inactive)
REMARK    1  A    between atoms: C_13  and  O_31 
REMARK    2  A    between atoms: C_14  and  O_32 
REMARK    3  A    between atoms: C_14  and  C_16 
REMARK    4  A    between atoms: C_15  and  O_31 
REMARK    5  A    between atoms: C_17  and  O_30 
REMARK    6  A    between atoms: C_18  and  O_29 
REMARK    7  A    between atoms: C_19  and  O_27 
REMARK    8  A    between atoms: C_20  and  O_27 
REMARK    9  A    between atoms: C_20  and  C_22 
REMARK   10  A    between atoms: C_21  and  O_26 
REMARK   11  A    between atoms: O_24  and  C_46 
REMARK   12  A    between atoms: O_25  and  C_65 
REMARK   13  A    between atoms: O_25  and  C_71 
REMARK   14  A    between atoms: O_35  and  C_155 
REMARK   15  A    between atoms: O_36  and  C_154 
REMARK   16  A    between atoms: O_37  and  C_152 
REMARK   17  A    between atoms: O_50  and  C_72 
REMARK   18  A    between atoms: O_51  and  C_73 
REMARK   19  A    between atoms: O_51  and  Pt_84 
REMARK   20  A    between atoms: O_52  and  C_69 
REMARK   21  A    between atoms: C_60  and  C_69 
REMARK   22  A    between atoms: Pt_84  and  O_144 
REMARK   23  A    between atoms: C_86  and  O_133 
REMARK   24  A    between atoms: C_88  and  O_134 
REMARK   25  A    between atoms: C_89  and  O_135 
REMARK   26  A    between atoms: C_90  and  O_138 
REMARK   27  A    between atoms: C_91  and  O_137 
REMARK   28  A    between atoms: C_91  and  C_93 
REMARK   29  A    between atoms: C_92  and  O_138 
REMARK   30  A    between atoms: C_94  and  O_139 
REMARK   31  A    between atoms: C_95  and  O_140 
REMARK   32  A    between atoms: C_96  and  O_142 
REMARK   33  A    between atoms: C_97  and  O_142 
REMARK   34  A    between atoms: C_97  and  C_99 
REMARK   35  A    between atoms: C_98  and  O_143 
REMARK   36  A    between atoms: C_100  and  O_144 
REMARK   37  A    between atoms: C_101  and  O_145 
REMARK   38  A    between atoms: C_102  and  O_148 
REMARK   39  A    between atoms: C_104  and  O_147 
REMARK   40  A    between atoms: C_104  and  C_113 
REMARK   41  A    between atoms: C_108  and  O_148 
REMARK   42  A    between atoms: C_124  and  O_149 
ROOT
HETATM    1  Cl          1     -17.038  -2.621  59.906  0.00  0.00     0.098 C 
HETATM    2  Cl          1     -18.091   0.596  61.337  0.00  0.00     0.098 C 
HETATM    3  Pt          1     -18.821  -1.469  60.716  0.00  0.00     0.090 P 
ENDROOT
BRANCH   3   4
HETATM    4  O           1     -19.476  -2.258  62.346  0.00  0.00    -0.335 OA
BRANCH   4   5
HETATM    5  C           1     -20.537  -1.689  63.077  0.00  0.00     0.193 C 
HETATM    6  C           1     -20.196  -1.841  64.565  0.00  0.00     0.181 C 
HETATM    7  C           1     -20.734  -3.144  65.161  0.00  0.00     0.180 C 
HETATM    8  O           1     -20.729  -4.157  64.198  0.00  0.00    -0.348 OA
HETATM    9  C           1     -21.660  -3.922  63.155  0.00  0.00     0.292 C 
HETATM   10  C           1     -21.855  -2.440  62.892  0.00  0.00     0.205 C 
BRANCH   6  11
HETATM   11  O           1     -20.747  -0.767  65.293  0.00  0.00    -0.390 OA
HETATM   12  H           1     -20.084  -0.074  65.373  0.00  0.00     0.210 HD
ENDBRANCH   6  11
BRANCH   7  13
HETATM   13  C           1     -19.903  -3.575  66.363  0.00  0.00     0.205 C 
BRANCH  13  14
HETATM   14  O           1     -20.773  -3.690  67.461  0.00  0.00    -0.356 OA
BRANCH  14  15
HETATM   15  C           1     -20.248  -3.163  68.661  0.00  0.00     0.291 C 
HETATM   16  C           1     -19.822  -1.735  68.433  0.00  0.00     0.204 C 
HETATM   17  C           1     -19.046  -1.203  69.623  0.00  0.00     0.183 C 
HETATM   18  C           1     -17.902  -2.145  69.976  0.00  0.00     0.187 C 
HETATM   19  C           1     -18.410  -3.593  70.053  0.00  0.00     0.180 C 
HETATM   20  O           1     -19.100  -3.948  68.886  0.00  0.00    -0.348 OA
BRANCH  16  21
HETATM   21  O           1     -20.945  -0.909  68.245  0.00  0.00    -0.388 OA
HETATM   22  H           1     -21.445  -1.259  67.502  0.00  0.00     0.210 HD
ENDBRANCH  16  21
BRANCH  17  23
HETATM   23  O           1     -18.594   0.079  69.244  0.00  0.00    -0.390 OA
HETATM   24  H           1     -18.022   0.041  68.475  0.00  0.00     0.210 HD
ENDBRANCH  17  23
BRANCH  18  25
HETATM   25  O           1     -17.304  -1.862  71.217  0.00  0.00    -0.348 OA
BRANCH  25  26
HETATM   26  C           1     -16.011  -1.304  71.223  0.00  0.00     0.292 C 
HETATM   27  O           1     -15.158  -2.158  71.954  0.00  0.00    -0.351 OA
HETATM   28  C           1     -15.166  -1.906  73.330  0.00  0.00     0.152 C 
HETATM   29  C           1     -14.453  -3.056  74.041  0.00  0.00     0.042 C 
HETATM   30  C           1     -14.494  -0.566  73.615  0.00  0.00     0.178 C 
HETATM   31  C           1     -14.750   0.422  72.489  0.00  0.00     0.183 C 
HETATM   32  C           1     -16.062   0.095  71.809  0.00  0.00     0.204 C 
BRANCH  30  33
HETATM   33  O           1     -15.023  -0.032  74.805  0.00  0.00    -0.390 OA
HETATM   34  H           1     -15.661  -0.634  75.193  0.00  0.00     0.210 HD
ENDBRANCH  30  33
BRANCH  31  35
HETATM   35  O           1     -14.810   1.734  72.994  0.00  0.00    -0.390 OA
HETATM   36  H           1     -13.954   2.155  72.870  0.00  0.00     0.210 HD
ENDBRANCH  31  35
BRANCH  32  37
HETATM   37  O           1     -16.279   1.048  70.796  0.00  0.00    -0.388 OA
HETATM   38  H           1     -17.028   0.756  70.268  0.00  0.00     0.210 HD
ENDBRANCH  32  37
ENDBRANCH  25  26
ENDBRANCH  18  25
BRANCH  19  39
HETATM   39  C           1     -17.292  -4.619  70.215  0.00  0.00     0.198 C 
BRANCH  39  40
HETATM   40  O           1     -16.834  -4.678  71.551  0.00  0.00    -0.398 OA
HETATM   41  H           1     -17.356  -5.322  72.037  0.00  0.00     0.209 HD
ENDBRANCH  39  40
ENDBRANCH  19  39
ENDBRANCH  14  15
ENDBRANCH  13  14
ENDBRANCH   7  13
BRANCH   9  42
HETATM   42  O           1     -22.862  -4.547  63.553  0.00  0.00    -0.352 OA
BRANCH  42  43
HETATM   43  C           1     -23.299  -5.654  62.802  0.00  0.00     0.135 C 
HETATM   44  C           1     -23.421  -7.001  63.556  0.00  0.00     0.008 C 
HETATM   45  C           1     -24.141  -8.031  62.601  0.00  0.00     0.007 C 
HETATM   46  C           1     -22.067  -7.580  64.042  0.00  0.00     0.020 C 
HETATM   47  C           1     -23.618  -8.112  61.125  0.00  0.00    -0.032 C 
HETATM   48  C           1     -25.685  -7.922  62.657  0.00  0.00     0.007 C 
HETATM   49  C           1     -24.566  -9.003  60.253  0.00  0.00     0.025 C 
HETATM   50  C           1     -23.373  -6.714  60.513  0.00  0.00     0.012 C 
HETATM   51  C           1     -22.242  -8.849  61.080  0.00  0.00     0.016 C 
HETATM   52  C           1     -26.121  -8.890  60.291  0.00  0.00    -0.026 C 
HETATM   53  C           1     -24.175  -9.217  58.816  0.00  0.00    -0.021 C 
HETATM   54  C           1     -26.835 -10.049  59.407  0.00  0.00     0.002 C 
HETATM   55  C           1     -26.443  -8.954  61.802  0.00  0.00     0.011 C 
HETATM   56  C           1     -26.586  -7.492  59.807  0.00  0.00     0.016 C 
HETATM   57  C           1     -25.804 -11.074  58.818  0.00  0.00     0.091 C 
HETATM   58  C           1     -27.890 -10.872  60.197  0.00  0.00     0.046 C 
HETATM   59  C           1     -27.627  -9.437  58.209  0.00  0.00     0.019 C 
HETATM   60  O           1     -25.289 -11.846  59.883  0.00  0.00    -0.374 OA
HETATM   61  C           1     -26.371 -12.156  57.873  0.00  0.00     0.039 C 
HETATM   62  C           1     -24.751 -10.221  58.143  0.00  0.00     0.008 C 
HETATM   63  C           1     -25.997 -13.061  59.961  0.00  0.00     0.181 C 
HETATM   64  C           1     -27.121 -12.963  58.932  0.00  0.00     0.014 C 
HETATM   65  C           1     -28.310 -12.167  59.495  0.00  0.00     0.130 C 
HETATM   66  C           1     -27.559 -14.284  58.299  0.00  0.00     0.015 C 
HETATM   67  C           1     -26.816 -14.547  56.974  0.00  0.00     0.010 C 
HETATM   68  C           1     -25.223 -14.627  57.294  0.00  0.00    -0.047 C 
HETATM   69  C           1     -25.307 -13.023  57.118  0.00  0.00     0.017 C 
HETATM   70  C           1     -23.869 -14.508  56.384  0.00  0.00     0.015 C 
HETATM   71  C           1     -25.322 -16.060  56.572  0.00  0.00     0.015 C 
HETATM   72  C           1     -22.621  -5.746  61.436  0.00  0.00     0.034 C 
BRANCH  44  73
HETATM   73  C           1     -24.215  -6.744  64.861  0.00  0.00     0.176 C 
BRANCH  73  74
HETATM   74  O           1     -23.408  -6.114  65.837  0.00  0.00    -0.400 OA
HETATM   75  H           1     -23.971  -5.619  66.437  0.00  0.00     0.209 HD
ENDBRANCH  73  74
ENDBRANCH  44  73
BRANCH  65  76
HETATM   76  O           1     -29.014 -12.969  60.417  0.00  0.00    -0.395 OA
HETATM   77  H           1     -29.760 -13.382  59.976  0.00  0.00     0.210 HD
ENDBRANCH  65  76
ENDBRANCH  42  43
ENDBRANCH   9  42
BRANCH  10  78
HETATM   78  O           1     -22.402  -2.222  61.612  0.00  0.00    -0.388 OA
HETATM   79  H           1     -21.932  -2.727  60.947  0.00  0.00     0.210 HD
ENDBRANCH  10  78
ENDBRANCH   4   5
ENDBRANCH   3   4
BRANCH   3  80
HETATM   80  O           1     -20.224  -1.203  59.424  0.00  0.00    -0.335 OA
BRANCH  80  81
HETATM   81  C           1     -20.364  -1.963  58.246  0.00  0.00     0.193 C 
HETATM   82  C           1     -20.429  -1.142  56.965  0.00  0.00     0.181 C 
HETATM   83  C           1     -20.513  -2.083  55.762  0.00  0.00     0.180 C 
HETATM   84  O           1     -21.649  -2.895  55.874  0.00  0.00    -0.348 OA
HETATM   85  C           1     -21.581  -3.777  56.975  0.00  0.00     0.292 C 
HETATM   86  C           1     -21.487  -2.989  58.267  0.00  0.00     0.205 C 
BRANCH  82  87
HETATM   87  O           1     -19.284  -0.327  56.869  0.00  0.00    -0.390 OA
HETATM   88  H           1     -18.515  -0.861  56.651  0.00  0.00     0.210 HD
ENDBRANCH  82  87
BRANCH  83  89
HETATM   89  C           1     -20.606  -1.315  54.446  0.00  0.00     0.205 C 
BRANCH  89  90
HETATM   90  O           1     -21.826  -0.615  54.433  0.00  0.00    -0.356 OA
BRANCH  90  91
HETATM   91  C           1     -21.679   0.787  54.332  0.00  0.00     0.291 C 
HETATM   92  C           1     -23.031   1.422  54.551  0.00  0.00     0.204 C 
HETATM   93  C           1     -22.990   2.918  54.294  0.00  0.00     0.183 C 
HETATM   94  C           1     -21.916   3.275  53.276  0.00  0.00     0.187 C 
HETATM   95  C           1     -21.623   2.108  52.335  0.00  0.00     0.180 C 
HETATM   96  O           1     -21.197   0.955  53.011  0.00  0.00    -0.348 OA
BRANCH  92  97
HETATM   97  O           1     -23.458   1.208  55.878  0.00  0.00    -0.388 OA
HETATM   98  H           1     -23.345   0.279  56.097  0.00  0.00     0.210 HD
ENDBRANCH  92  97
BRANCH  93  99
HETATM   99  O           1     -22.686   3.560  55.512  0.00  0.00    -0.390 OA
HETATM  100  H           1     -23.404   4.124  55.801  0.00  0.00     0.210 HD
ENDBRANCH  93  99
BRANCH  94 101
HETATM  101  O           1     -22.258   4.379  52.479  0.00  0.00    -0.348 OA
BRANCH 101 102
HETATM  102  C           1     -21.299   5.405  52.348  0.00  0.00     0.292 C 
HETATM  103  C           1     -21.687   6.529  53.284  0.00  0.00     0.204 C 
HETATM  104  C           1     -20.762   7.707  53.073  0.00  0.00     0.183 C 
HETATM  105  C           1     -20.809   8.101  51.612  0.00  0.00     0.178 C 
HETATM  106  C           1     -20.456   6.898  50.748  0.00  0.00     0.152 C 
HETATM  107  C           1     -20.541   7.224  49.256  0.00  0.00     0.042 C 
HETATM  108  O           1     -21.336   5.837  51.008  0.00  0.00    -0.351 OA
BRANCH 103 109
HETATM  109  O           1     -21.572   6.101  54.619  0.00  0.00    -0.388 OA
HETATM  110  H           1     -20.888   6.623  55.049  0.00  0.00     0.210 HD
ENDBRANCH 103 109
BRANCH 104 111
HETATM  111  O           1     -21.185   8.784  53.870  0.00  0.00    -0.390 OA
HETATM  112  H           1     -22.062   9.051  53.584  0.00  0.00     0.210 HD
ENDBRANCH 104 111
BRANCH 105 113
HETATM  113  O           1     -19.888   9.147  51.418  0.00  0.00    -0.390 OA
HETATM  114  H           1     -19.042   8.800  51.127  0.00  0.00     0.210 HD
ENDBRANCH 105 113
ENDBRANCH 101 102
ENDBRANCH  94 101
BRANCH  95 115
HETATM  115  C           1     -22.743   1.790  51.348  0.00  0.00     0.198 C 
BRANCH 115 116
HETATM  116  O           1     -22.572   2.547  50.163  0.00  0.00    -0.398 OA
HETATM  117  H           1     -21.837   3.160  50.263  0.00  0.00     0.209 HD
ENDBRANCH 115 116
ENDBRANCH  95 115
ENDBRANCH  90  91
ENDBRANCH  89  90
ENDBRANCH  83  89
BRANCH  85 118
HETATM  118  O           1     -22.837  -4.427  56.967  0.00  0.00    -0.352 OA
BRANCH 118 119
HETATM  119  C           1     -23.893  -3.740  56.350  0.00  0.00     0.135 C 
HETATM  120  C           1     -23.788  -3.805  54.815  0.00  0.00     0.034 C 
HETATM  121  C           1     -24.624  -4.912  54.137  0.00  0.00     0.012 C 
HETATM  122  C           1     -24.850  -6.150  55.028  0.00  0.00    -0.032 C 
HETATM  123  C           1     -23.418  -6.706  55.329  0.00  0.00     0.016 C 
HETATM  124  C           1     -25.644  -5.680  56.284  0.00  0.00     0.007 C 
HETATM  125  C           1     -25.578  -7.349  54.333  0.00  0.00     0.025 C 
HETATM  126  C           1     -25.236  -4.288  56.901  0.00  0.00     0.008 C 
HETATM  127  C           1     -27.181  -5.829  56.152  0.00  0.00     0.007 C 
HETATM  128  C           1     -25.121  -4.485  58.444  0.00  0.00     0.020 C 
HETATM  129  C           1     -27.745  -7.051  55.399  0.00  0.00     0.011 C 
HETATM  130  C           1     -27.097  -7.291  54.004  0.00  0.00    -0.026 C 
HETATM  131  C           1     -27.489  -6.078  53.119  0.00  0.00     0.016 C 
HETATM  132  C           1     -27.572  -8.646  53.268  0.00  0.00     0.002 C 
HETATM  133  C           1     -29.060  -8.900  53.642  0.00  0.00     0.019 C 
HETATM  134  C           1     -27.560  -8.484  51.716  0.00  0.00     0.046 C 
HETATM  135  C           1     -26.695  -9.912  53.586  0.00  0.00     0.091 C 
HETATM  136  C           1     -27.476  -9.760  50.872  0.00  0.00     0.130 C 
HETATM  137  C           1     -26.591 -10.862  51.476  0.00  0.00     0.014 C 
HETATM  138  C           1     -25.754 -11.608  50.433  0.00  0.00     0.015 C 
HETATM  139  C           1     -27.353 -11.779  52.430  0.00  0.00     0.181 C 
HETATM  140  C           1     -25.645 -10.229  52.492  0.00  0.00     0.039 C 
HETATM  141  C           1     -24.250 -11.547  50.778  0.00  0.00     0.010 C 
HETATM  142  C           1     -23.989 -12.474  52.074  0.00  0.00    -0.047 C 
HETATM  143  C           1     -22.786 -13.090  51.197  0.00  0.00     0.015 C 
HETATM  144  C           1     -22.880 -12.601  53.265  0.00  0.00     0.015 C 
HETATM  145  C           1     -24.470 -11.167  52.904  0.00  0.00     0.017 C 
HETATM  146  O           1     -27.498 -11.072  53.634  0.00  0.00    -0.374 OA
HETATM  147  C           1     -26.011  -9.734  54.910  0.00  0.00     0.008 C 
HETATM  148  C           1     -25.439  -8.571  55.225  0.00  0.00    -0.021 C 
BRANCH 126 149
HETATM  149  C           1     -26.281  -3.148  56.785  0.00  0.00     0.176 C 
BRANCH 149 150
HETATM  150  O           1     -26.745  -2.693  58.038  0.00  0.00    -0.400 OA
HETATM  151  H           1     -26.760  -3.429  58.655  0.00  0.00     0.209 HD
ENDBRANCH 149 150
ENDBRANCH 126 149
BRANCH 136 152
HETATM  152  O           1     -28.763 -10.248  50.577  0.00  0.00    -0.395 OA
HETATM  153  H           1     -29.409  -9.815  51.141  0.00  0.00     0.210 HD
ENDBRANCH 136 152
ENDBRANCH 118 119
ENDBRANCH  85 118
BRANCH  86 154
HETATM  154  O           1     -21.271  -3.869  59.346  0.00  0.00    -0.388 OA
HETATM  155  H           1     -20.333  -4.070  59.409  0.00  0.00     0.210 HD
ENDBRANCH  86 154
ENDBRANCH  80  81
ENDBRANCH   3  80
TORSDOF 42
ENDMDL
MODEL 2
REMARK VINA RESULT:      -8.9      4.592     12.451
REMARK WARNING: 32 MAX_TORS EXCEEDED!!!
REMARK  42 active torsions:
REMARK  status: ('A' for Active; 'I' for Inactive)
REMARK    1  A    between atoms: C_13  and  O_31 
REMARK    2  A    between atoms: C_14  and  O_32 
REMARK    3  A    between atoms: C_14  and  C_16 
REMARK    4  A    between atoms: C_15  and  O_31 
REMARK    5  A    between atoms: C_17  and  O_30 
REMARK    6  A    between atoms: C_18  and  O_29 
REMARK    7  A    between atoms: C_19  and  O_27 
REMARK    8  A    between atoms: C_20  and  O_27 
REMARK    9  A    between atoms: C_20  and  C_22 
REMARK   10  A    between atoms: C_21  and  O_26 
REMARK   11  A    between atoms: O_24  and  C_46 
REMARK   12  A    between atoms: O_25  and  C_65 
REMARK   13  A    between atoms: O_25  and  C_71 
REMARK   14  A    between atoms: O_35  and  C_155 
REMARK   15  A    between atoms: O_36  and  C_154 
REMARK   16  A    between atoms: O_37  and  C_152 
REMARK   17  A    between atoms: O_50  and  C_72 
REMARK   18  A    between atoms: O_51  and  C_73 
REMARK   19  A    between atoms: O_51  and  Pt_84 
REMARK   20  A    between atoms: O_52  and  C_69 
REMARK   21  A    between atoms: C_60  and  C_69 
REMARK   22  A    between atoms: Pt_84  and  O_144 
REMARK   23  A    between atoms: C_86  and  O_133 
REMARK   24  A    between atoms: C_88  and  O_134 
REMARK   25  A    between atoms: C_89  and  O_135 
REMARK   26  A    between atoms: C_90  and  O_138 
REMARK   27  A    between atoms: C_91  and  O_137 
REMARK   28  A    between atoms: C_91  and  C_93 
REMARK   29  A    between atoms: C_92  and  O_138 
REMARK   30  A    between atoms: C_94  and  O_139 
REMARK   31  A    between atoms: C_95  and  O_140 
REMARK   32  A    between atoms: C_96  and  O_142 
REMARK   33  A    between atoms: C_97  and  O_142 
REMARK   34  A    between atoms: C_97  and  C_99 
REMARK   35  A    between atoms: C_98  and  O_143 
REMARK   36  A    between atoms: C_100  and  O_144 
REMARK   37  A    between atoms: C_101  and  O_145 
REMARK   38  A    between atoms: C_102  and  O_148 
REMARK   39  A    between atoms: C_104  and  O_147 
REMARK   40  A    between atoms: C_104  and  C_113 
REMARK   41  A    between atoms: C_108  and  O_148 
REMARK   42  A    between atoms: C_124  and  O_149 
ROOT
HETATM    1  Cl          1     -19.264  -4.655  62.553  0.00  0.00     0.098 C 
HETATM    2  Cl          1     -21.510  -2.075  63.897  0.00  0.00     0.098 C 
HETATM    3  Pt          1     -20.977  -3.258  62.027  0.00  0.00     0.090 P 
ENDROOT
BRANCH   3   4
HETATM    4  O           1     -22.578  -4.245  61.610  0.00  0.00    -0.335 OA
BRANCH   4   5
HETATM    5  C           1     -23.857  -3.668  61.709  0.00  0.00     0.193 C 
HETATM    6  C           1     -24.878  -4.769  61.393  0.00  0.00     0.181 C 
HETATM    7  C           1     -25.230  -4.834  59.904  0.00  0.00     0.180 C 
HETATM    8  O           1     -24.124  -4.476  59.129  0.00  0.00    -0.348 OA
HETATM    9  C           1     -23.777  -3.109  59.273  0.00  0.00     0.292 C 
HETATM   10  C           1     -24.103  -2.584  60.660  0.00  0.00     0.205 C 
BRANCH   6  11
HETATM   11  O           1     -26.068  -4.539  62.114  0.00  0.00    -0.390 OA
HETATM   12  H           1     -26.782  -5.033  61.699  0.00  0.00     0.210 HD
ENDBRANCH   6  11
BRANCH   7  13
HETATM   13  C           1     -25.696  -6.233  59.518  0.00  0.00     0.205 C 
BRANCH  13  14
HETATM   14  O           1     -27.085  -6.290  59.729  0.00  0.00    -0.356 OA
BRANCH  14  15
HETATM   15  C           1     -27.770  -7.092  58.791  0.00  0.00     0.291 C 
HETATM   16  C           1     -27.206  -8.490  58.824  0.00  0.00     0.204 C 
HETATM   17  C           1     -27.751  -9.323  57.680  0.00  0.00     0.183 C 
HETATM   18  C           1     -27.550  -8.602  56.354  0.00  0.00     0.187 C 
HETATM   19  C           1     -28.032  -7.146  56.461  0.00  0.00     0.180 C 
HETATM   20  O           1     -27.442  -6.500  57.555  0.00  0.00    -0.348 OA
BRANCH  16  21
HETATM   21  O           1     -27.548  -9.132  60.028  0.00  0.00    -0.388 OA
HETATM   22  H           1     -26.751  -9.545  60.376  0.00  0.00     0.210 HD
ENDBRANCH  16  21
BRANCH  17  23
HETATM   23  O           1     -27.060 -10.552  57.737  0.00  0.00    -0.390 OA
HETATM   24  H           1     -27.358 -11.160  57.057  0.00  0.00     0.210 HD
ENDBRANCH  17  23
BRANCH  18  25
HETATM   25  O           1     -28.258  -9.182  55.285  0.00  0.00    -0.348 OA
BRANCH  25  26
HETATM   26  C           1     -27.573 -10.076  54.438  0.00  0.00     0.292 C 
HETATM   27  O           1     -26.884  -9.326  53.461  0.00  0.00    -0.351 OA
HETATM   28  C           1     -27.665  -9.019  52.343  0.00  0.00     0.152 C 
HETATM   29  C           1     -26.928  -7.976  51.503  0.00  0.00     0.042 C 
HETATM   30  C           1     -27.946 -10.288  51.543  0.00  0.00     0.178 C 
HETATM   31  C           1     -28.071 -11.493  52.460  0.00  0.00     0.183 C 
HETATM   32  C           1     -28.559 -11.051  53.823  0.00  0.00     0.204 C 
BRANCH  30  33
HETATM   33  O           1     -29.159 -10.131  50.845  0.00  0.00    -0.390 OA
HETATM   34  H           1     -29.213  -9.258  50.452  0.00  0.00     0.210 HD
ENDBRANCH  30  33
BRANCH  31  35
HETATM   35  O           1     -28.984 -12.422  51.925  0.00  0.00    -0.390 OA
HETATM   36  H           1     -29.316 -12.976  52.637  0.00  0.00     0.210 HD
ENDBRANCH  31  35
BRANCH  32  37
HETATM   37  O           1     -28.693 -12.195  54.632  0.00  0.00    -0.388 OA
HETATM   38  H           1     -29.349 -12.007  55.309  0.00  0.00     0.210 HD
ENDBRANCH  32  37
ENDBRANCH  25  26
ENDBRANCH  18  25
BRANCH  19  39
HETATM   39  C           1     -27.692  -6.304  55.235  0.00  0.00     0.198 C 
BRANCH  39  40
HETATM   40  O           1     -28.353  -5.055  55.267  0.00  0.00    -0.398 OA
HETATM   41  H           1     -27.887  -4.465  55.865  0.00  0.00     0.209 HD
ENDBRANCH  39  40
ENDBRANCH  19  39
ENDBRANCH  14  15
ENDBRANCH  13  14
ENDBRANCH   7  13
BRANCH   9  42
HETATM   42  O           1     -24.487  -2.415  58.269  0.00  0.00    -0.352 OA
BRANCH  42  43
HETATM   43  C           1     -23.812  -2.145  57.064  0.00  0.00     0.135 C 
HETATM   44  C           1     -24.492  -2.633  55.761  0.00  0.00     0.008 C 
HETATM   45  C           1     -23.699  -2.027  54.539  0.00  0.00     0.007 C 
HETATM   46  C           1     -24.577  -4.176  55.631  0.00  0.00     0.020 C 
HETATM   47  C           1     -22.135  -2.140  54.585  0.00  0.00    -0.032 C 
HETATM   48  C           1     -24.158  -0.592  54.178  0.00  0.00     0.007 C 
HETATM   49  C           1     -21.489  -1.305  53.429  0.00  0.00     0.025 C 
HETATM   50  C           1     -21.563  -1.787  55.976  0.00  0.00     0.012 C 
HETATM   51  C           1     -21.693  -3.609  54.298  0.00  0.00     0.016 C 
HETATM   52  C           1     -21.934   0.146  53.067  0.00  0.00    -0.026 C 
HETATM   53  C           1     -19.989  -1.348  53.308  0.00  0.00    -0.021 C 
HETATM   54  C           1     -21.200   0.690  51.727  0.00  0.00     0.002 C 
HETATM   55  C           1     -23.471   0.022  52.945  0.00  0.00     0.011 C 
HETATM   56  C           1     -21.669   1.116  54.248  0.00  0.00     0.016 C 
HETATM   57  C           1     -20.306  -0.406  51.047  0.00  0.00     0.091 C 
HETATM   58  C           1     -22.186   1.203  50.642  0.00  0.00     0.046 C 
HETATM   59  C           1     -20.285   1.915  52.041  0.00  0.00     0.019 C 
HETATM   60  O           1     -21.155  -1.389  50.492  0.00  0.00    -0.374 OA
HETATM   61  C           1     -19.479   0.042  49.822  0.00  0.00     0.039 C 
HETATM   62  C           1     -19.431  -0.940  52.162  0.00  0.00     0.008 C 
HETATM   63  C           1     -21.342  -1.121  49.122  0.00  0.00     0.181 C 
HETATM   64  C           1     -20.648   0.211  48.852  0.00  0.00     0.014 C 
HETATM   65  C           1     -21.544   1.390  49.265  0.00  0.00     0.130 C 
HETATM   66  C           1     -20.074   0.387  47.446  0.00  0.00     0.015 C 
HETATM   67  C           1     -18.588  -0.023  47.388  0.00  0.00     0.010 C 
HETATM   68  C           1     -18.480  -1.593  47.800  0.00  0.00    -0.047 C 
HETATM   69  C           1     -18.425  -0.992  49.299  0.00  0.00     0.017 C 
HETATM   70  C           1     -17.259  -2.559  48.301  0.00  0.00     0.015 C 
HETATM   71  C           1     -17.726  -1.738  46.387  0.00  0.00     0.015 C 
HETATM   72  C           1     -22.314  -2.433  57.149  0.00  0.00     0.034 C 
BRANCH  44  73
HETATM   73  C           1     -25.971  -2.173  55.798  0.00  0.00     0.176 C 
BRANCH  73  74
HETATM   74  O           1     -26.759  -3.041  56.589  0.00  0.00    -0.400 OA
HETATM   75  H           1     -26.878  -2.651  57.459  0.00  0.00     0.209 HD
ENDBRANCH  73  74
ENDBRANCH  44  73
BRANCH  65  76
HETATM   76  O           1     -22.569   1.553  48.310  0.00  0.00    -0.395 OA
HETATM   77  H           1     -22.629   2.479  48.062  0.00  0.00     0.210 HD
ENDBRANCH  65  76
ENDBRANCH  42  43
ENDBRANCH   9  42
BRANCH  10  78
HETATM   78  O           1     -23.373  -1.414  60.941  0.00  0.00    -0.388 OA
HETATM   79  H           1     -22.486  -1.468  60.582  0.00  0.00     0.210 HD
ENDBRANCH  10  78
ENDBRANCH   4   5
ENDBRANCH   3   4
BRANCH   3  80
HETATM   80  O           1     -20.539  -1.975  60.658  0.00  0.00    -0.335 OA
BRANCH  80  81
HETATM   81  C           1     -19.226  -1.696  60.234  0.00  0.00     0.193 C 
HETATM   82  C           1     -18.822  -0.231  60.344  0.00  0.00     0.181 C 
HETATM   83  C           1     -17.361  -0.073  59.918  0.00  0.00     0.180 C 
HETATM   84  O           1     -17.201  -0.521  58.601  0.00  0.00    -0.348 OA
HETATM   85  C           1     -17.433  -1.908  58.465  0.00  0.00     0.292 C 
HETATM   86  C           1     -18.859  -2.237  58.860  0.00  0.00     0.205 C 
BRANCH  82  87
HETATM   87  O           1     -18.994   0.207  61.672  0.00  0.00    -0.390 OA
HETATM   88  H           1     -19.411  -0.482  62.196  0.00  0.00     0.210 HD
ENDBRANCH  82  87
BRANCH  83  89
HETATM   89  C           1     -16.905   1.382  59.984  0.00  0.00     0.205 C 
BRANCH  89  90
HETATM   90  O           1     -15.848   1.551  59.073  0.00  0.00    -0.356 OA
BRANCH  90  91
HETATM   91  C           1     -16.219   2.218  57.884  0.00  0.00     0.291 C 
HETATM   92  C           1     -14.970   2.779  57.245  0.00  0.00     0.204 C 
HETATM   93  C           1     -15.303   3.653  56.049  0.00  0.00     0.183 C 
HETATM   94  C           1     -16.675   4.294  56.197  0.00  0.00     0.187 C 
HETATM   95  C           1     -17.070   4.446  57.665  0.00  0.00     0.180 C 
HETATM   96  O           1     -17.098   3.224  58.352  0.00  0.00    -0.348 OA
BRANCH  92  97
HETATM   97  O           1     -14.133   1.728  56.813  0.00  0.00    -0.388 OA
HETATM   98  H           1     -13.861   1.897  55.907  0.00  0.00     0.210 HD
ENDBRANCH  92  97
BRANCH  93  99
HETATM   99  O           1     -15.311   2.833  54.901  0.00  0.00    -0.390 OA
HETATM  100  H           1     -16.185   2.780  54.513  0.00  0.00     0.210 HD
ENDBRANCH  93  99
BRANCH  94 101
HETATM  101  O           1     -16.755   5.566  55.609  0.00  0.00    -0.348 OA
BRANCH 101 102
HETATM  102  C           1     -17.561   5.699  54.459  0.00  0.00     0.292 C 
HETATM  103  C           1     -17.585   7.161  54.071  0.00  0.00     0.204 C 
HETATM  104  C           1     -18.550   7.366  52.925  0.00  0.00     0.183 C 
HETATM  105  C           1     -19.907   6.834  53.336  0.00  0.00     0.178 C 
HETATM  106  C           1     -19.776   5.376  53.757  0.00  0.00     0.152 C 
HETATM  107  C           1     -21.109   4.800  54.235  0.00  0.00     0.042 C 
HETATM  108  O           1     -18.851   5.254  54.805  0.00  0.00    -0.351 OA
BRANCH 103 109
HETATM  109  O           1     -16.303   7.567  53.657  0.00  0.00    -0.388 OA
HETATM  110  H           1     -16.134   8.446  54.007  0.00  0.00     0.210 HD
ENDBRANCH 103 109
BRANCH 104 111
HETATM  111  O           1     -18.646   8.737  52.632  0.00  0.00    -0.390 OA
HETATM  112  H           1     -17.760   9.108  52.608  0.00  0.00     0.210 HD
ENDBRANCH 104 111
BRANCH 105 113
HETATM  113  O           1     -20.772   6.963  52.233  0.00  0.00    -0.390 OA
HETATM  114  H           1     -20.295   7.296  51.470  0.00  0.00     0.210 HD
ENDBRANCH 105 113
ENDBRANCH 101 102
ENDBRANCH  94 101
BRANCH  95 115
HETATM  115  C           1     -16.270   5.495  58.433  0.00  0.00     0.198 C 
BRANCH 115 116
HETATM  116  O           1     -17.093   6.114  59.405  0.00  0.00    -0.398 OA
HETATM  117  H           1     -17.088   7.068  59.287  0.00  0.00     0.209 HD
ENDBRANCH 115 116
ENDBRANCH  95 115
ENDBRANCH  90  91
ENDBRANCH  89  90
ENDBRANCH  83  89
BRANCH  85 118
HETATM  118  O           1     -17.316  -2.137  57.074  0.00  0.00    -0.352 OA
BRANCH 118 119
HETATM  119  C           1     -16.021  -2.352  56.582  0.00  0.00     0.135 C 
HETATM  120  C           1     -15.610  -3.831  56.704  0.00  0.00     0.034 C 
HETATM  121  C           1     -15.816  -4.685  55.434  0.00  0.00     0.012 C 
HETATM  122  C           1     -16.971  -4.193  54.538  0.00  0.00    -0.032 C 
HETATM  123  C           1     -18.253  -4.291  55.431  0.00  0.00     0.016 C 
HETATM  124  C           1     -16.612  -2.751  54.067  0.00  0.00     0.007 C 
HETATM  125  C           1     -17.300  -5.107  53.311  0.00  0.00     0.025 C 
HETATM  126  C           1     -15.939  -1.805  55.133  0.00  0.00     0.008 C 
HETATM  127  C           1     -15.886  -2.696  52.699  0.00  0.00     0.007 C 
HETATM  128  C           1     -16.673  -0.430  55.055  0.00  0.00     0.020 C 
HETATM  129  C           1     -16.299  -3.697  51.600  0.00  0.00     0.011 C 
HETATM  130  C           1     -16.355  -5.177  52.078  0.00  0.00    -0.026 C 
HETATM  131  C           1     -14.901  -5.580  52.440  0.00  0.00     0.016 C 
HETATM  132  C           1     -16.924  -6.215  50.981  0.00  0.00     0.002 C 
HETATM  133  C           1     -16.476  -5.723  49.576  0.00  0.00     0.019 C 
HETATM  134  C           1     -16.281  -7.626  51.148  0.00  0.00     0.046 C 
HETATM  135  C           1     -18.481  -6.432  51.025  0.00  0.00     0.091 C 
HETATM  136  C           1     -17.042  -8.824  50.569  0.00  0.00     0.130 C 
HETATM  137  C           1     -18.571  -8.723  50.694  0.00  0.00     0.014 C 
HETATM  138  C           1     -19.240 -10.055  51.044  0.00  0.00     0.015 C 
HETATM  139  C           1     -19.216  -7.994  49.517  0.00  0.00     0.181 C 
HETATM  140  C           1     -18.907  -7.711  51.786  0.00  0.00     0.039 C 
HETATM  141  C           1     -20.090  -9.932  52.328  0.00  0.00     0.010 C 
HETATM  142  C           1     -21.390  -9.034  51.991  0.00  0.00    -0.047 C 
HETATM  143  C           1     -22.204 -10.225  52.711  0.00  0.00     0.015 C 
HETATM  144  C           1     -22.467  -8.116  52.803  0.00  0.00     0.015 C 
HETATM  145  C           1     -20.393  -7.784  52.253  0.00  0.00     0.017 C 
HETATM  146  O           1     -18.991  -6.625  49.723  0.00  0.00    -0.374 OA
HETATM  147  C           1     -19.142  -5.232  51.638  0.00  0.00     0.008 C 
HETATM  148  C           1     -18.632  -4.663  52.732  0.00  0.00    -0.021 C 
BRANCH 126 149
HETATM  149  C           1     -14.461  -1.412  54.872  0.00  0.00     0.176 C 
BRANCH 149 150
HETATM  150  O           1     -14.294  -0.037  54.598  0.00  0.00    -0.400 OA
HETATM  151  H           1     -13.528   0.290  55.077  0.00  0.00     0.209 HD
ENDBRANCH 149 150
ENDBRANCH 126 149
BRANCH 136 152
HETATM  152  O           1     -16.657  -9.062  49.236  0.00  0.00    -0.395 OA
HETATM  153  H           1     -17.434  -9.059  48.671  0.00  0.00     0.210 HD
ENDBRANCH 136 152
ENDBRANCH 118 119
ENDBRANCH  85 118
BRANCH  86 154
HETATM  154  O           1     -19.041  -3.634  58.865  0.00  0.00    -0.388 OA
HETATM  155  H           1     -18.335  -4.044  59.373  0.00  0.00     0.210 HD
ENDBRANCH  86 154
ENDBRANCH  80  81
ENDBRANCH   3  80
TORSDOF 42
ENDMDL
MODEL 3
REMARK VINA RESULT:      -8.7      4.818     12.991
REMARK WARNING: 32 MAX_TORS EXCEEDED!!!
REMARK  42 active torsions:
REMARK  status: ('A' for Active; 'I' for Inactive)
REMARK    1  A    between atoms: C_13  and  O_31 
REMARK    2  A    between atoms: C_14  and  O_32 
REMARK    3  A    between atoms: C_14  and  C_16 
REMARK    4  A    between atoms: C_15  and  O_31 
REMARK    5  A    between atoms: C_17  and  O_30 
REMARK    6  A    between atoms: C_18  and  O_29 
REMARK    7  A    between atoms: C_19  and  O_27 
REMARK    8  A    between atoms: C_20  and  O_27 
REMARK    9  A    between atoms: C_20  and  C_22 
REMARK   10  A    between atoms: C_21  and  O_26 
REMARK   11  A    between atoms: O_24  and  C_46 
REMARK   12  A    between atoms: O_25  and  C_65 
REMARK   13  A    between atoms: O_25  and  C_71 
REMARK   14  A    between atoms: O_35  and  C_155 
REMARK   15  A    between atoms: O_36  and  C_154 
REMARK   16  A    between atoms: O_37  and  C_152 
REMARK   17  A    between atoms: O_50  and  C_72 
REMARK   18  A    between atoms: O_51  and  C_73 
REMARK   19  A    between atoms: O_51  and  Pt_84 
REMARK   20  A    between atoms: O_52  and  C_69 
REMARK   21  A    between atoms: C_60  and  C_69 
REMARK   22  A    between atoms: Pt_84  and  O_144 
REMARK   23  A    between atoms: C_86  and  O_133 
REMARK   24  A    between atoms: C_88  and  O_134 
REMARK   25  A    between atoms: C_89  and  O_135 
REMARK   26  A    between atoms: C_90  and  O_138 
REMARK   27  A    between atoms: C_91  and  O_137 
REMARK   28  A    between atoms: C_91  and  C_93 
REMARK   29  A    between atoms: C_92  and  O_138 
REMARK   30  A    between atoms: C_94  and  O_139 
REMARK   31  A    between atoms: C_95  and  O_140 
REMARK   32  A    between atoms: C_96  and  O_142 
REMARK   33  A    between atoms: C_97  and  O_142 
REMARK   34  A    between atoms: C_97  and  C_99 
REMARK   35  A    between atoms: C_98  and  O_143 
REMARK   36  A    between atoms: C_100  and  O_144 
REMARK   37  A    between atoms: C_101  and  O_145 
REMARK   38  A    between atoms: C_102  and  O_148 
REMARK   39  A    between atoms: C_104  and  O_147 
REMARK   40  A    between atoms: C_104  and  C_113 
REMARK   41  A    between atoms: C_108  and  O_148 
REMARK   42  A    between atoms: C_124  and  O_149 
ROOT
HETATM    1  Cl          1     -19.341  -4.879  62.414  0.00  0.00     0.098 C 
HETATM    2  Cl          1     -21.515  -2.326  63.919  0.00  0.00     0.098 C 
HETATM    3  Pt          1     -21.051  -3.443  61.991  0.00  0.00     0.090 P 
ENDROOT
BRANCH   3   4
HETATM    4  O           1     -22.675  -4.395  61.583  0.00  0.00    -0.335 OA
BRANCH   4   5
HETATM    5  C           1     -23.942  -3.796  61.711  0.00  0.00     0.193 C 
HETATM    6  C           1     -24.987  -4.869  61.379  0.00  0.00     0.181 C 
HETATM    7  C           1     -25.356  -4.891  59.893  0.00  0.00     0.180 C 
HETATM    8  O           1     -24.252  -4.534  59.114  0.00  0.00    -0.348 OA
HETATM    9  C           1     -23.877  -3.178  59.289  0.00  0.00     0.292 C 
HETATM   10  C           1     -24.179  -2.682  60.692  0.00  0.00     0.205 C 
BRANCH   6  11
HETATM   11  O           1     -26.165  -4.635  62.119  0.00  0.00    -0.390 OA
HETATM   12  H           1     -26.894  -4.503  61.506  0.00  0.00     0.210 HD
ENDBRANCH   6  11
BRANCH   7  13
HETATM   13  C           1     -25.853  -6.270  59.478  0.00  0.00     0.205 C 
BRANCH  13  14
HETATM   14  O           1     -27.255  -6.262  59.575  0.00  0.00    -0.356 OA
BRANCH  14  15
HETATM   15  C           1     -27.899  -7.032  58.581  0.00  0.00     0.291 C 
HETATM   16  C           1     -27.382  -8.447  58.635  0.00  0.00     0.204 C 
HETATM   17  C           1     -27.873  -9.250  57.445  0.00  0.00     0.183 C 
HETATM   18  C           1     -27.557  -8.521  56.145  0.00  0.00     0.187 C 
HETATM   19  C           1     -27.999  -7.052  56.238  0.00  0.00     0.180 C 
HETATM   20  O           1     -27.467  -6.437  57.379  0.00  0.00    -0.348 OA
BRANCH  16  21
HETATM   21  O           1     -27.827  -9.091  59.803  0.00  0.00    -0.388 OA
HETATM   22  H           1     -27.479  -9.988  59.794  0.00  0.00     0.210 HD
ENDBRANCH  16  21
BRANCH  17  23
HETATM   23  O           1     -27.226 -10.501  57.533  0.00  0.00    -0.390 OA
HETATM   24  H           1     -27.823 -11.189  57.835  0.00  0.00     0.210 HD
ENDBRANCH  17  23
BRANCH  18  25
HETATM   25  O           1     -28.207  -9.066  55.023  0.00  0.00    -0.348 OA
BRANCH  25  26
HETATM   26  C           1     -27.526 -10.039  54.265  0.00  0.00     0.292 C 
HETATM   27  O           1     -26.809  -9.386  53.239  0.00  0.00    -0.351 OA
HETATM   28  C           1     -27.569  -9.162  52.086  0.00  0.00     0.152 C 
HETATM   29  C           1     -26.802  -8.205  51.174  0.00  0.00     0.042 C 
HETATM   30  C           1     -27.861 -10.489  51.392  0.00  0.00     0.178 C 
HETATM   31  C           1     -28.020 -11.610  52.405  0.00  0.00     0.183 C 
HETATM   32  C           1     -28.520 -11.047  53.718  0.00  0.00     0.204 C 
BRANCH  30  33
HETATM   33  O           1     -29.061 -10.371  50.665  0.00  0.00    -0.390 OA
HETATM   34  H           1     -29.189 -11.134  50.098  0.00  0.00     0.210 HD
ENDBRANCH  30  33
BRANCH  31  35
HETATM   35  O           1     -28.941 -12.566  51.936  0.00  0.00    -0.390 OA
HETATM   36  H           1     -28.904 -12.587  50.976  0.00  0.00     0.210 HD
ENDBRANCH  31  35
BRANCH  32  37
HETATM   37  O           1     -28.685 -12.116  54.618  0.00  0.00    -0.388 OA
HETATM   38  H           1     -28.102 -12.829  54.344  0.00  0.00     0.210 HD
ENDBRANCH  32  37
ENDBRANCH  25  26
ENDBRANCH  18  25
BRANCH  19  39
HETATM   39  C           1     -27.548  -6.207  55.050  0.00  0.00     0.198 C 
BRANCH  39  40
HETATM   40  O           1     -28.311  -6.492  53.894  0.00  0.00    -0.398 OA
HETATM   41  H           1     -28.104  -7.379  53.589  0.00  0.00     0.209 HD
ENDBRANCH  39  40
ENDBRANCH  19  39
ENDBRANCH  14  15
ENDBRANCH  13  14
ENDBRANCH   7  13
BRANCH   9  42
HETATM   42  O           1     -24.585  -2.445  58.310  0.00  0.00    -0.352 OA
BRANCH  42  43
HETATM   43  C           1     -23.910  -2.137  57.115  0.00  0.00     0.135 C 
HETATM   44  C           1     -24.581  -2.599  55.798  0.00  0.00     0.008 C 
HETATM   45  C           1     -23.791  -1.953  54.594  0.00  0.00     0.007 C 
HETATM   46  C           1     -24.646  -4.140  55.628  0.00  0.00     0.020 C 
HETATM   47  C           1     -22.226  -2.049  54.642  0.00  0.00    -0.032 C 
HETATM   48  C           1     -24.266  -0.516  54.269  0.00  0.00     0.007 C 
HETATM   49  C           1     -21.587  -1.177  53.509  0.00  0.00     0.025 C 
HETATM   50  C           1     -21.662  -1.726  56.044  0.00  0.00     0.012 C 
HETATM   51  C           1     -21.766  -3.506  54.319  0.00  0.00     0.016 C 
HETATM   52  C           1     -22.047   0.277  53.184  0.00  0.00    -0.026 C 
HETATM   53  C           1     -20.086  -1.200  53.393  0.00  0.00    -0.021 C 
HETATM   54  C           1     -21.317   0.863  51.860  0.00  0.00     0.002 C 
HETATM   55  C           1     -23.583   0.138  53.054  0.00  0.00     0.011 C 
HETATM   56  C           1     -21.797   1.219  54.390  0.00  0.00     0.016 C 
HETATM   57  C           1     -20.407  -0.204  51.155  0.00  0.00     0.091 C 
HETATM   58  C           1     -22.306   1.393  50.786  0.00  0.00     0.046 C 
HETATM   59  C           1     -20.417   2.090  52.208  0.00  0.00     0.019 C 
HETATM   60  O           1     -21.243  -1.183  50.573  0.00  0.00    -0.374 OA
HETATM   61  C           1     -19.582   0.284  49.944  0.00  0.00     0.039 C 
HETATM   62  C           1     -19.530  -0.757  52.259  0.00  0.00     0.008 C 
HETATM   63  C           1     -21.430  -0.882  49.209  0.00  0.00     0.181 C 
HETATM   64  C           1     -20.750   0.464  48.975  0.00  0.00     0.014 C 
HETATM   65  C           1     -21.661   1.622  49.416  0.00  0.00     0.130 C 
HETATM   66  C           1     -20.174   0.684  47.576  0.00  0.00     0.015 C 
HETATM   67  C           1     -18.684   0.292  47.513  0.00  0.00     0.010 C 
HETATM   68  C           1     -18.559  -1.286  47.884  0.00  0.00    -0.047 C 
HETATM   69  C           1     -18.515  -0.723  49.399  0.00  0.00     0.017 C 
HETATM   70  C           1     -17.328  -2.250  48.365  0.00  0.00     0.015 C 
HETATM   71  C           1     -17.799  -1.386  46.471  0.00  0.00     0.015 C 
HETATM   72  C           1     -22.409  -2.410  57.197  0.00  0.00     0.034 C 
BRANCH  44  73
HETATM   73  C           1     -26.065  -2.158  55.841  0.00  0.00     0.176 C 
BRANCH  73  74
HETATM   74  O           1     -26.838  -3.035  56.637  0.00  0.00    -0.400 OA
HETATM   75  H           1     -27.662  -3.227  56.182  0.00  0.00     0.209 HD
ENDBRANCH  73  74
ENDBRANCH  44  73
BRANCH  65  76
HETATM   76  O           1     -22.685   1.798  48.462  0.00  0.00    -0.395 OA
HETATM   77  H           1     -22.832   2.736  48.320  0.00  0.00     0.210 HD
ENDBRANCH  65  76
ENDBRANCH  42  43
ENDBRANCH   9  42
BRANCH  10  78
HETATM   78  O           1     -23.423  -1.533  60.994  0.00  0.00    -0.388 OA
HETATM   79  H           1     -23.291  -0.993  60.213  0.00  0.00     0.210 HD
ENDBRANCH  10  78
ENDBRANCH   4   5
ENDBRANCH   3   4
BRANCH   3  80
HETATM   80  O           1     -20.635  -2.114  60.660  0.00  0.00    -0.335 OA
BRANCH  80  81
HETATM   81  C           1     -19.326  -1.782  60.262  0.00  0.00     0.193 C 
HETATM   82  C           1     -18.947  -0.323  60.482  0.00  0.00     0.181 C 
HETATM   83  C           1     -17.489  -0.108  60.075  0.00  0.00     0.180 C 
HETATM   84  O           1     -17.317  -0.454  58.729  0.00  0.00    -0.348 OA
HETATM   85  C           1     -17.525  -1.831  58.490  0.00  0.00     0.292 C 
HETATM   86  C           1     -18.946  -2.213  58.853  0.00  0.00     0.205 C 
BRANCH  82  87
HETATM   87  O           1     -19.130   0.013  61.838  0.00  0.00    -0.390 OA
HETATM   88  H           1     -18.279   0.088  62.279  0.00  0.00     0.210 HD
ENDBRANCH  82  87
BRANCH  83  89
HETATM   89  C           1     -17.058   1.345  60.251  0.00  0.00     0.205 C 
BRANCH  89  90
HETATM   90  O           1     -17.222   2.003  59.018  0.00  0.00    -0.356 OA
BRANCH  90  91
HETATM   91  C           1     -16.426   3.161  58.878  0.00  0.00     0.291 C 
HETATM   92  C           1     -15.975   3.256  57.441  0.00  0.00     0.204 C 
HETATM   93  C           1     -14.978   4.385  57.244  0.00  0.00     0.183 C 
HETATM   94  C           1     -14.188   4.653  58.517  0.00  0.00     0.187 C 
HETATM   95  C           1     -14.101   3.407  59.397  0.00  0.00     0.180 C 
HETATM   96  O           1     -15.359   2.918  59.777  0.00  0.00    -0.348 OA
BRANCH  92  97
HETATM   97  O           1     -17.083   3.486  56.598  0.00  0.00    -0.388 OA
HETATM   98  H           1     -17.396   2.645  56.256  0.00  0.00     0.210 HD
ENDBRANCH  92  97
BRANCH  93  99
HETATM   99  O           1     -15.701   5.549  56.910  0.00  0.00    -0.390 OA
HETATM  100  H           1     -16.410   5.359  56.294  0.00  0.00     0.210 HD
ENDBRANCH  93  99
BRANCH  94 101
HETATM  101  O           1     -12.875   5.082  58.269  0.00  0.00    -0.348 OA
BRANCH 101 102
HETATM  102  C           1     -12.413   6.203  58.991  0.00  0.00     0.292 C 
HETATM  103  C           1     -12.377   7.384  58.045  0.00  0.00     0.204 C 
HETATM  104  C           1     -11.756   8.574  58.743  0.00  0.00     0.183 C 
HETATM  105  C           1     -10.388   8.173  59.254  0.00  0.00     0.178 C 
HETATM  106  C           1     -10.517   6.950  60.152  0.00  0.00     0.152 C 
HETATM  107  C           1      -9.156   6.466  60.654  0.00  0.00     0.042 C 
HETATM  108  O           1     -11.119   5.894  59.452  0.00  0.00    -0.351 OA
BRANCH 103 109
HETATM  109  O           1     -13.685   7.725  57.655  0.00  0.00    -0.388 OA
HETATM  110  H           1     -13.894   8.591  58.015  0.00  0.00     0.210 HD
ENDBRANCH 103 109
BRANCH 104 111
HETATM  111  O           1     -11.632   9.638  57.835  0.00  0.00    -0.390 OA
HETATM  112  H           1     -10.738   9.639  57.485  0.00  0.00     0.210 HD
ENDBRANCH 104 111
BRANCH 105 113
HETATM  113  O           1      -9.857   9.265  59.965  0.00  0.00    -0.390 OA
HETATM  114  H           1     -10.199   9.280  60.861  0.00  0.00     0.210 HD
ENDBRANCH 105 113
ENDBRANCH 101 102
ENDBRANCH  94 101
BRANCH  95 115
HETATM  115  C           1     -13.219   2.294  58.839  0.00  0.00     0.198 C 
BRANCH 115 116
HETATM  116  O           1     -11.869   2.516  59.208  0.00  0.00    -0.398 OA
HETATM  117  H           1     -11.826   2.937  60.072  0.00  0.00     0.209 HD
ENDBRANCH 115 116
ENDBRANCH  95 115
ENDBRANCH  90  91
ENDBRANCH  89  90
ENDBRANCH  83  89
BRANCH  85 118
HETATM  118  O           1     -17.400  -1.954  57.086  0.00  0.00    -0.352 OA
BRANCH 118 119
HETATM  119  C           1     -16.105  -2.159  56.589  0.00  0.00     0.135 C 
HETATM  120  C           1     -15.684  -3.635  56.704  0.00  0.00     0.034 C 
HETATM  121  C           1     -15.889  -4.486  55.432  0.00  0.00     0.012 C 
HETATM  122  C           1     -17.050  -4.000  54.542  0.00  0.00    -0.032 C 
HETATM  123  C           1     -18.329  -4.108  55.439  0.00  0.00     0.016 C 
HETATM  124  C           1     -16.703  -2.553  54.075  0.00  0.00     0.007 C 
HETATM  125  C           1     -17.378  -4.911  53.313  0.00  0.00     0.025 C 
HETATM  126  C           1     -16.032  -1.606  55.141  0.00  0.00     0.008 C 
HETATM  127  C           1     -15.983  -2.489  52.704  0.00  0.00     0.007 C 
HETATM  128  C           1     -16.776  -0.236  55.071  0.00  0.00     0.020 C 
HETATM  129  C           1     -16.393  -3.488  51.603  0.00  0.00     0.011 C 
HETATM  130  C           1     -16.437  -4.970  52.076  0.00  0.00    -0.026 C 
HETATM  131  C           1     -14.979  -5.365  52.431  0.00  0.00     0.016 C 
HETATM  132  C           1     -17.004  -6.008  50.978  0.00  0.00     0.002 C 
HETATM  133  C           1     -16.565  -5.509  49.573  0.00  0.00     0.019 C 
HETATM  134  C           1     -16.351  -7.416  51.137  0.00  0.00     0.046 C 
HETATM  135  C           1     -18.559  -6.235  51.026  0.00  0.00     0.091 C 
HETATM  136  C           1     -17.106  -8.617  50.557  0.00  0.00     0.130 C 
HETATM  137  C           1     -18.635  -8.526  50.688  0.00  0.00     0.014 C 
HETATM  138  C           1     -19.294  -9.864  51.035  0.00  0.00     0.015 C 
HETATM  139  C           1     -19.289  -7.798  49.516  0.00  0.00     0.181 C 
HETATM  140  C           1     -18.973  -7.521  51.785  0.00  0.00     0.039 C 
HETATM  141  C           1     -20.140  -9.751  52.323  0.00  0.00     0.010 C 
HETATM  142  C           1     -21.447  -8.861  51.994  0.00  0.00    -0.047 C 
HETATM  143  C           1     -22.250 -10.059  52.713  0.00  0.00     0.015 C 
HETATM  144  C           1     -22.527  -7.952  52.814  0.00  0.00     0.015 C 
HETATM  145  C           1     -20.457  -7.604  52.257  0.00  0.00     0.017 C 
HETATM  146  O           1     -19.073  -6.427  49.726  0.00  0.00    -0.374 OA
HETATM  147  C           1     -19.226  -5.042  51.647  0.00  0.00     0.008 C 
HETATM  148  C           1     -18.715  -4.474  52.740  0.00  0.00    -0.021 C 
BRANCH 126 149
HETATM  149  C           1     -14.558  -1.202  54.875  0.00  0.00     0.176 C 
BRANCH 149 150
HETATM  150  O           1     -13.674  -2.302  54.881  0.00  0.00    -0.400 OA
HETATM  151  H           1     -12.909  -2.095  54.337  0.00  0.00     0.209 HD
ENDBRANCH 149 150
ENDBRANCH 126 149
BRANCH 136 152
HETATM  152  O           1     -16.725  -8.848  49.222  0.00  0.00    -0.395 OA
HETATM  153  H           1     -15.898  -9.337  49.203  0.00  0.00     0.210 HD
ENDBRANCH 136 152
ENDBRANCH 118 119
ENDBRANCH  85 118
BRANCH  86 154
HETATM  154  O           1     -19.103  -3.609  58.755  0.00  0.00    -0.388 OA
HETATM  155  H           1     -19.988  -3.808  58.435  0.00  0.00     0.210 HD
ENDBRANCH  86 154
ENDBRANCH  80  81
ENDBRANCH   3  80
TORSDOF 42
ENDMDL
MODEL 4
REMARK VINA RESULT:      -8.4      3.297     16.158
REMARK WARNING: 32 MAX_TORS EXCEEDED!!!
REMARK  42 active torsions:
REMARK  status: ('A' for Active; 'I' for Inactive)
REMARK    1  A    between atoms: C_13  and  O_31 
REMARK    2  A    between atoms: C_14  and  O_32 
REMARK    3  A    between atoms: C_14  and  C_16 
REMARK    4  A    between atoms: C_15  and  O_31 
REMARK    5  A    between atoms: C_17  and  O_30 
REMARK    6  A    between atoms: C_18  and  O_29 
REMARK    7  A    between atoms: C_19  and  O_27 
REMARK    8  A    between atoms: C_20  and  O_27 
REMARK    9  A    between atoms: C_20  and  C_22 
REMARK   10  A    between atoms: C_21  and  O_26 
REMARK   11  A    between atoms: O_24  and  C_46 
REMARK   12  A    between atoms: O_25  and  C_65 
REMARK   13  A    between atoms: O_25  and  C_71 
REMARK   14  A    between atoms: O_35  and  C_155 
REMARK   15  A    between atoms: O_36  and  C_154 
REMARK   16  A    between atoms: O_37  and  C_152 
REMARK   17  A    between atoms: O_50  and  C_72 
REMARK   18  A    between atoms: O_51  and  C_73 
REMARK   19  A    between atoms: O_51  and  Pt_84 
REMARK   20  A    between atoms: O_52  and  C_69 
REMARK   21  A    between atoms: C_60  and  C_69 
REMARK   22  A    between atoms: Pt_84  and  O_144 
REMARK   23  A    between atoms: C_86  and  O_133 
REMARK   24  A    between atoms: C_88  and  O_134 
REMARK   25  A    between atoms: C_89  and  O_135 
REMARK   26  A    between atoms: C_90  and  O_138 
REMARK   27  A    between atoms: C_91  and  O_137 
REMARK   28  A    between atoms: C_91  and  C_93 
REMARK   29  A    between atoms: C_92  and  O_138 
REMARK   30  A    between atoms: C_94  and  O_139 
REMARK   31  A    between atoms: C_95  and  O_140 
REMARK   32  A    between atoms: C_96  and  O_142 
REMARK   33  A    between atoms: C_97  and  O_142 
REMARK   34  A    between atoms: C_97  and  C_99 
REMARK   35  A    between atoms: C_98  and  O_143 
REMARK   36  A    between atoms: C_100  and  O_144 
REMARK   37  A    between atoms: C_101  and  O_145 
REMARK   38  A    between atoms: C_102  and  O_148 
REMARK   39  A    between atoms: C_104  and  O_147 
REMARK   40  A    between atoms: C_104  and  C_113 
REMARK   41  A    between atoms: C_108  and  O_148 
REMARK   42  A    between atoms: C_124  and  O_149 
ROOT
HETATM    1  Cl          1     -21.740  -7.042  54.174  0.00  0.00     0.098 C 
HETATM    2  Cl          1     -22.508  -7.115  57.768  0.00  0.00     0.098 C 
HETATM    3  Pt          1     -21.155  -6.180  56.194  0.00  0.00     0.090 P 
ENDROOT
BRANCH   3   4
HETATM    4  O           1     -21.544  -4.296  56.285  0.00  0.00    -0.335 OA
BRANCH   4   5
HETATM    5  C           1     -22.159  -3.714  57.410  0.00  0.00     0.193 C 
HETATM    6  C           1     -23.667  -3.963  57.283  0.00  0.00     0.181 C 
HETATM    7  C           1     -24.389  -2.835  56.540  0.00  0.00     0.180 C 
HETATM    8  O           1     -23.552  -2.281  55.569  0.00  0.00    -0.348 OA
HETATM    9  C           1     -22.451  -1.585  56.130  0.00  0.00     0.292 C 
HETATM   10  C           1     -22.009  -2.193  57.449  0.00  0.00     0.205 C 
BRANCH   6  11
HETATM   11  O           1     -24.242  -4.080  58.565  0.00  0.00    -0.390 OA
HETATM   12  H           1     -24.195  -5.000  58.843  0.00  0.00     0.210 HD
ENDBRANCH   6  11
BRANCH   7  13
HETATM   13  C           1     -25.666  -3.347  55.885  0.00  0.00     0.205 C 
BRANCH  13  14
HETATM   14  O           1     -26.358  -4.108  56.844  0.00  0.00    -0.356 OA
BRANCH  14  15
HETATM   15  C           1     -26.713  -5.399  56.397  0.00  0.00     0.291 C 
HETATM   16  C           1     -26.416  -6.401  57.483  0.00  0.00     0.204 C 
HETATM   17  C           1     -26.565  -7.820  56.968  0.00  0.00     0.183 C 
HETATM   18  C           1     -25.745  -8.015  55.699  0.00  0.00     0.187 C 
HETATM   19  C           1     -26.016  -6.872  54.710  0.00  0.00     0.180 C 
HETATM   20  O           1     -25.833  -5.623  55.319  0.00  0.00    -0.348 OA
BRANCH  16  21
HETATM   21  O           1     -27.303  -6.237  58.562  0.00  0.00    -0.388 OA
HETATM   22  H           1     -26.779  -6.203  59.369  0.00  0.00     0.210 HD
ENDBRANCH  16  21
BRANCH  17  23
HETATM   23  O           1     -26.140  -8.657  58.021  0.00  0.00    -0.390 OA
HETATM   24  H           1     -26.639  -8.500  58.825  0.00  0.00     0.210 HD
ENDBRANCH  17  23
BRANCH  18  25
HETATM   25  O           1     -26.036  -9.212  55.020  0.00  0.00    -0.348 OA
BRANCH  25  26
HETATM   26  C           1     -27.376  -9.647  54.978  0.00  0.00     0.292 C 
HETATM   27  O           1     -27.560 -10.625  55.978  0.00  0.00    -0.351 OA
HETATM   28  C           1     -27.231 -11.918  55.559  0.00  0.00     0.152 C 
HETATM   29  C           1     -27.185 -12.832  56.784  0.00  0.00     0.042 C 
HETATM   30  C           1     -28.249 -12.405  54.532  0.00  0.00     0.178 C 
HETATM   31  C           1     -28.756 -11.253  53.679  0.00  0.00     0.183 C 
HETATM   32  C           1     -27.696 -10.176  53.592  0.00  0.00     0.204 C 
BRANCH  30  33
HETATM   33  O           1     -27.633 -13.347  53.687  0.00  0.00    -0.390 OA
HETATM   34  H           1     -28.061 -14.202  53.764  0.00  0.00     0.210 HD
ENDBRANCH  30  33
BRANCH  31  35
HETATM   35  O           1     -29.060 -11.703  52.381  0.00  0.00    -0.390 OA
HETATM   36  H           1     -28.334 -12.247  52.063  0.00  0.00     0.210 HD
ENDBRANCH  31  35
BRANCH  32  37
HETATM   37  O           1     -28.188  -9.144  52.771  0.00  0.00    -0.388 OA
HETATM   38  H           1     -29.132  -9.283  52.651  0.00  0.00     0.210 HD
ENDBRANCH  32  37
ENDBRANCH  25  26
ENDBRANCH  18  25
BRANCH  19  39
HETATM   39  C           1     -25.093  -6.891  53.494  0.00  0.00     0.198 C 
BRANCH  39  40
HETATM   40  O           1     -25.422  -7.945  52.612  0.00  0.00    -0.398 OA
HETATM   41  H           1     -24.618  -8.397  52.344  0.00  0.00     0.209 HD
ENDBRANCH  39  40
ENDBRANCH  19  39
ENDBRANCH  14  15
ENDBRANCH  13  14
ENDBRANCH   7  13
BRANCH   9  42
HETATM   42  O           1     -22.869  -0.245  56.284  0.00  0.00    -0.352 OA
BRANCH  42  43
HETATM   43  C           1     -22.322   0.711  55.409  0.00  0.00     0.135 C 
HETATM   44  C           1     -23.288   1.338  54.373  0.00  0.00     0.008 C 
HETATM   45  C           1     -22.538   2.534  53.667  0.00  0.00     0.007 C 
HETATM   46  C           1     -23.814   0.337  53.312  0.00  0.00     0.020 C 
HETATM   47  C           1     -21.076   2.256  53.169  0.00  0.00    -0.032 C 
HETATM   48  C           1     -22.628   3.855  54.470  0.00  0.00     0.007 C 
HETATM   49  C           1     -20.394   3.586  52.701  0.00  0.00     0.025 C 
HETATM   50  C           1     -20.239   1.483  54.213  0.00  0.00     0.012 C 
HETATM   51  C           1     -21.104   1.361  51.891  0.00  0.00     0.016 C 
HETATM   52  C           1     -20.465   4.917  53.509  0.00  0.00    -0.026 C 
HETATM   53  C           1     -18.997   3.480  52.149  0.00  0.00    -0.021 C 
HETATM   54  C           1     -19.806   6.157  52.698  0.00  0.00     0.002 C 
HETATM   55  C           1     -21.978   5.075  53.793  0.00  0.00     0.011 C 
HETATM   56  C           1     -19.778   4.762  54.891  0.00  0.00     0.016 C 
HETATM   57  C           1     -19.355   5.753  51.250  0.00  0.00     0.091 C 
HETATM   58  C           1     -20.754   7.379  52.550  0.00  0.00     0.046 C 
HETATM   59  C           1     -18.553   6.716  53.441  0.00  0.00     0.019 C 
HETATM   60  O           1     -20.513   5.526  50.473  0.00  0.00    -0.374 OA
HETATM   61  C           1     -18.618   6.834  50.430  0.00  0.00     0.039 C 
HETATM   62  C           1     -18.515   4.507  51.438  0.00  0.00     0.008 C 
HETATM   63  C           1     -20.810   6.686  49.731  0.00  0.00     0.181 C 
HETATM   64  C           1     -19.818   7.750  50.195  0.00  0.00     0.014 C 
HETATM   65  C           1     -20.285   8.399  51.508  0.00  0.00     0.130 C 
HETATM   66  C           1     -19.422   8.790  49.147  0.00  0.00     0.015 C 
HETATM   67  C           1     -18.132   8.381  48.407  0.00  0.00     0.010 C 
HETATM   68  C           1     -18.406   6.965  47.656  0.00  0.00    -0.047 C 
HETATM   69  C           1     -17.976   6.348  49.086  0.00  0.00     0.017 C 
HETATM   70  C           1     -17.443   5.800  47.031  0.00  0.00     0.015 C 
HETATM   71  C           1     -17.929   7.762  46.344  0.00  0.00     0.015 C 
HETATM   72  C           1     -20.967   0.289  54.845  0.00  0.00     0.034 C 
BRANCH  44  73
HETATM   73  C           1     -24.561   1.797  55.127  0.00  0.00     0.176 C 
BRANCH  73  74
HETATM   74  O           1     -24.288   2.037  56.494  0.00  0.00    -0.400 OA
HETATM   75  H           1     -23.696   1.355  56.821  0.00  0.00     0.209 HD
ENDBRANCH  73  74
ENDBRANCH  44  73
BRANCH  65  76
HETATM   76  O           1     -21.348   9.285  51.238  0.00  0.00    -0.395 OA
HETATM   77  H           1     -21.597   9.741  52.046  0.00  0.00     0.210 HD
ENDBRANCH  65  76
ENDBRANCH  42  43
ENDBRANCH   9  42
BRANCH  10  78
HETATM   78  O           1     -20.691  -1.809  57.765  0.00  0.00    -0.388 OA
HETATM   79  H           1     -20.286  -2.434  58.369  0.00  0.00     0.210 HD
ENDBRANCH  10  78
ENDBRANCH   4   5
ENDBRANCH   3   4
BRANCH   3  80
HETATM   80  O           1     -19.342  -6.572  56.709  0.00  0.00    -0.335 OA
BRANCH  80  81
HETATM   81  C           1     -18.745  -6.114  57.900  0.00  0.00     0.193 C 
HETATM   82  C           1     -19.348  -6.691  59.174  0.00  0.00     0.181 C 
HETATM   83  C           1     -18.574  -6.169  60.385  0.00  0.00     0.180 C 
HETATM   84  O           1     -18.629  -4.770  60.416  0.00  0.00    -0.348 OA
HETATM   85  C           1     -17.964  -4.174  59.320  0.00  0.00     0.292 C 
HETATM   86  C           1     -18.618  -4.602  58.021  0.00  0.00     0.205 C 
BRANCH  82  87
HETATM   87  O           1     -19.291  -8.098  59.128  0.00  0.00    -0.390 OA
HETATM   88  H           1     -18.382  -8.396  59.226  0.00  0.00     0.210 HD
ENDBRANCH  82  87
BRANCH  83  89
HETATM   89  C           1     -19.149  -6.695  61.697  0.00  0.00     0.205 C 
BRANCH  89  90
HETATM   90  O           1     -20.497  -6.302  61.774  0.00  0.00    -0.356 OA
BRANCH  90  91
HETATM   91  C           1     -20.785  -5.463  62.873  0.00  0.00     0.291 C 
HETATM   92  C           1     -22.006  -6.006  63.577  0.00  0.00     0.204 C 
HETATM   93  C           1     -22.479  -5.067  64.672  0.00  0.00     0.183 C 
HETATM   94  C           1     -22.118  -3.623  64.357  0.00  0.00     0.187 C 
HETATM   95  C           1     -21.987  -3.392  62.853  0.00  0.00     0.180 C 
HETATM   96  O           1     -21.016  -4.209  62.257  0.00  0.00    -0.348 OA
BRANCH  92  97
HETATM   97  O           1     -21.713  -7.259  64.157  0.00  0.00    -0.388 OA
HETATM   98  H           1     -22.254  -7.933  63.737  0.00  0.00     0.210 HD
ENDBRANCH  92  97
BRANCH  93  99
HETATM   99  O           1     -21.838  -5.440  65.871  0.00  0.00    -0.390 OA
HETATM  100  H           1     -20.991  -5.855  65.703  0.00  0.00     0.210 HD
ENDBRANCH  93  99
BRANCH  94 101
HETATM  101  O           1     -23.060  -2.702  64.841  0.00  0.00    -0.348 OA
BRANCH 101 102
HETATM  102  C           1     -22.645  -1.833  65.873  0.00  0.00     0.292 C 
HETATM  103  C           1     -21.659  -0.847  65.284  0.00  0.00     0.204 C 
HETATM  104  C           1     -21.085   0.014  66.387  0.00  0.00     0.183 C 
HETATM  105  C           1     -20.473  -0.890  67.437  0.00  0.00     0.178 C 
HETATM  106  C           1     -21.522  -1.878  67.931  0.00  0.00     0.152 C 
HETATM  107  C           1     -20.945  -2.855  68.956  0.00  0.00     0.042 C 
HETATM  108  O           1     -22.028  -2.627  66.858  0.00  0.00    -0.351 OA
BRANCH 103 109
HETATM  109  O           1     -22.310  -0.014  64.357  0.00  0.00    -0.388 OA
HETATM  110  H           1     -23.120   0.314  64.758  0.00  0.00     0.210 HD
ENDBRANCH 103 109
BRANCH 104 111
HETATM  111  O           1     -20.097   0.860  65.855  0.00  0.00    -0.390 OA
HETATM  112  H           1     -20.285   1.004  64.925  0.00  0.00     0.210 HD
ENDBRANCH 104 111
BRANCH 105 113
HETATM  113  O           1     -20.013  -0.078  68.490  0.00  0.00    -0.390 OA
HETATM  114  H           1     -20.651  -0.061  69.205  0.00  0.00     0.210 HD
ENDBRANCH 105 113
ENDBRANCH 101 102
ENDBRANCH  94 101
BRANCH  95 115
HETATM  115  C           1     -23.305  -3.445  62.083  0.00  0.00     0.198 C 
BRANCH 115 116
HETATM  116  O           1     -23.265  -2.540  60.994  0.00  0.00    -0.398 OA
HETATM  117  H           1     -22.354  -2.336  60.765  0.00  0.00     0.209 HD
ENDBRANCH 115 116
ENDBRANCH  95 115
ENDBRANCH  90  91
ENDBRANCH  89  90
ENDBRANCH  83  89
BRANCH  85 118
HETATM  118  O           1     -18.213  -2.792  59.483  0.00  0.00    -0.352 OA
BRANCH 118 119
HETATM  119  C           1     -17.509  -2.146  60.510  0.00  0.00     0.135 C 
HETATM  120  C           1     -16.012  -2.018  60.174  0.00  0.00     0.034 C 
HETATM  121  C           1     -15.583  -0.669  59.557  0.00  0.00     0.012 C 
HETATM  122  C           1     -16.698   0.028  58.753  0.00  0.00    -0.032 C 
HETATM  123  C           1     -17.056  -0.967  57.599  0.00  0.00     0.016 C 
HETATM  124  C           1     -17.866   0.327  59.742  0.00  0.00     0.007 C 
HETATM  125  C           1     -16.266   1.331  58.002  0.00  0.00     0.025 C 
HETATM  126  C           1     -18.195  -0.786  60.808  0.00  0.00     0.008 C 
HETATM  127  C           1     -17.811   1.741  60.375  0.00  0.00     0.007 C 
HETATM  128  C           1     -19.743  -0.976  60.812  0.00  0.00     0.020 C 
HETATM  129  C           1     -17.321   2.921  59.512  0.00  0.00     0.011 C 
HETATM  130  C           1     -15.979   2.651  58.772  0.00  0.00    -0.026 C 
HETATM  131  C           1     -14.891   2.498  59.869  0.00  0.00     0.016 C 
HETATM  132  C           1     -15.528   3.819  57.753  0.00  0.00     0.002 C 
HETATM  133  C           1     -15.987   5.180  58.348  0.00  0.00     0.019 C 
HETATM  134  C           1     -13.974   3.917  57.654  0.00  0.00     0.046 C 
HETATM  135  C           1     -16.054   3.649  56.282  0.00  0.00     0.091 C 
HETATM  136  C           1     -13.385   4.578  56.403  0.00  0.00     0.130 C 
HETATM  137  C           1     -14.160   4.285  55.108  0.00  0.00     0.014 C 
HETATM  138  C           1     -13.253   4.059  53.896  0.00  0.00     0.015 C 
HETATM  139  C           1     -15.294   5.278  54.859  0.00  0.00     0.181 C 
HETATM  140  C           1     -15.009   3.034  55.317  0.00  0.00     0.039 C 
HETATM  141  C           1     -13.535   2.692  53.236  0.00  0.00     0.010 C 
HETATM  142  C           1     -14.975   2.766  52.510  0.00  0.00    -0.047 C 
HETATM  143  C           1     -14.195   2.141  51.245  0.00  0.00     0.015 C 
HETATM  144  C           1     -16.135   1.729  52.016  0.00  0.00     0.015 C 
HETATM  145  C           1     -15.555   2.434  53.986  0.00  0.00     0.017 C 
HETATM  146  O           1     -16.345   4.907  55.711  0.00  0.00    -0.374 OA
HETATM  147  C           1     -17.299   2.810  56.283  0.00  0.00     0.008 C 
HETATM  148  C           1     -17.369   1.705  57.027  0.00  0.00    -0.021 C 
BRANCH 126 149
HETATM  149  C           1     -17.896  -0.434  62.289  0.00  0.00     0.176 C 
BRANCH 149 150
HETATM  150  O           1     -19.061  -0.319  63.076  0.00  0.00    -0.400 OA
HETATM  151  H           1     -19.706  -0.968  62.782  0.00  0.00     0.209 HD
ENDBRANCH 149 150
ENDBRANCH 126 149
BRANCH 136 152
HETATM  152  O           1     -13.227   5.962  56.598  0.00  0.00    -0.395 OA
HETATM  153  H           1     -13.822   6.440  56.014  0.00  0.00     0.210 HD
ENDBRANCH 136 152
ENDBRANCH 118 119
ENDBRANCH  85 118
BRANCH  86 154
HETATM  154  O           1     -17.863  -4.128  56.930  0.00  0.00    -0.388 OA
HETATM  155  H           1     -18.282  -4.403  56.110  0.00  0.00     0.210 HD
ENDBRANCH  86 154
ENDBRANCH  80  81
ENDBRANCH   3  80
TORSDOF 42
ENDMDL
MODEL 5
REMARK VINA RESULT:      -8.3     24.515     38.011
REMARK WARNING: 32 MAX_TORS EXCEEDED!!!
REMARK  42 active torsions:
REMARK  status: ('A' for Active; 'I' for Inactive)
REMARK    1  A    between atoms: C_13  and  O_31 
REMARK    2  A    between atoms: C_14  and  O_32 
REMARK    3  A    between atoms: C_14  and  C_16 
REMARK    4  A    between atoms: C_15  and  O_31 
REMARK    5  A    between atoms: C_17  and  O_30 
REMARK    6  A    between atoms: C_18  and  O_29 
REMARK    7  A    between atoms: C_19  and  O_27 
REMARK    8  A    between atoms: C_20  and  O_27 
REMARK    9  A    between atoms: C_20  and  C_22 
REMARK   10  A    between atoms: C_21  and  O_26 
REMARK   11  A    between atoms: O_24  and  C_46 
REMARK   12  A    between atoms: O_25  and  C_65 
REMARK   13  A    between atoms: O_25  and  C_71 
REMARK   14  A    between atoms: O_35  and  C_155 
REMARK   15  A    between atoms: O_36  and  C_154 
REMARK   16  A    between atoms: O_37  and  C_152 
REMARK   17  A    between atoms: O_50  and  C_72 
REMARK   18  A    between atoms: O_51  and  C_73 
REMARK   19  A    between atoms: O_51  and  Pt_84 
REMARK   20  A    between atoms: O_52  and  C_69 
REMARK   21  A    between atoms: C_60  and  C_69 
REMARK   22  A    between atoms: Pt_84  and  O_144 
REMARK   23  A    between atoms: C_86  and  O_133 
REMARK   24  A    between atoms: C_88  and  O_134 
REMARK   25  A    between atoms: C_89  and  O_135 
REMARK   26  A    between atoms: C_90  and  O_138 
REMARK   27  A    between atoms: C_91  and  O_137 
REMARK   28  A    between atoms: C_91  and  C_93 
REMARK   29  A    between atoms: C_92  and  O_138 
REMARK   30  A    between atoms: C_94  and  O_139 
REMARK   31  A    between atoms: C_95  and  O_140 
REMARK   32  A    between atoms: C_96  and  O_142 
REMARK   33  A    between atoms: C_97  and  O_142 
REMARK   34  A    between atoms: C_97  and  C_99 
REMARK   35  A    between atoms: C_98  and  O_143 
REMARK   36  A    between atoms: C_100  and  O_144 
REMARK   37  A    between atoms: C_101  and  O_145 
REMARK   38  A    between atoms: C_102  and  O_148 
REMARK   39  A    between atoms: C_104  and  O_147 
REMARK   40  A    between atoms: C_104  and  C_113 
REMARK   41  A    between atoms: C_108  and  O_148 
REMARK   42  A    between atoms: C_124  and  O_149 
ROOT
HETATM    1  Cl          1     -17.370  27.729  41.819  0.00  0.00     0.098 C 
HETATM    2  Cl          1     -20.885  26.737  41.403  0.00  0.00     0.098 C 
HETATM    3  Pt          1     -19.438  27.864  42.752  0.00  0.00     0.090 P 
ENDROOT
BRANCH   3   4
HETATM    4  O           1     -20.087  29.677  42.745  0.00  0.00    -0.335 OA
BRANCH   4   5
HETATM    5  C           1     -19.216  30.782  42.790  0.00  0.00     0.193 C 
HETATM    6  C           1     -18.084  30.429  43.763  0.00  0.00     0.181 C 
HETATM    7  C           1     -18.392  30.852  45.202  0.00  0.00     0.180 C 
HETATM    8  O           1     -19.764  30.761  45.451  0.00  0.00    -0.348 OA
HETATM    9  C           1     -20.517  31.709  44.714  0.00  0.00     0.292 C 
HETATM   10  C           1     -19.870  32.031  43.378  0.00  0.00     0.205 C 
BRANCH   6  11
HETATM   11  O           1     -16.893  31.069  43.364  0.00  0.00    -0.390 OA
HETATM   12  H           1     -16.949  31.270  42.425  0.00  0.00     0.210 HD
ENDBRANCH   6  11
BRANCH   7  13
HETATM   13  C           1     -17.631  29.986  46.198  0.00  0.00     0.205 C 
BRANCH  13  14
HETATM   14  O           1     -18.424  29.873  47.353  0.00  0.00    -0.356 OA
BRANCH  14  15
HETATM   15  C           1     -17.694  29.533  48.513  0.00  0.00     0.291 C 
HETATM   16  C           1     -18.046  30.492  49.623  0.00  0.00     0.204 C 
HETATM   17  C           1     -17.123  30.309  50.812  0.00  0.00     0.183 C 
HETATM   18  C           1     -15.666  30.376  50.370  0.00  0.00     0.187 C 
HETATM   19  C           1     -15.438  29.469  49.151  0.00  0.00     0.180 C 
HETATM   20  O           1     -16.356  29.754  48.131  0.00  0.00    -0.348 OA
BRANCH  16  21
HETATM   21  O           1     -19.364  30.275  50.062  0.00  0.00    -0.388 OA
HETATM   22  H           1     -19.937  30.878  49.578  0.00  0.00     0.210 HD
ENDBRANCH  16  21
BRANCH  17  23
HETATM   23  O           1     -17.460  31.335  51.720  0.00  0.00    -0.390 OA
HETATM   24  H           1     -17.407  32.202  51.314  0.00  0.00     0.210 HD
ENDBRANCH  17  23
BRANCH  18  25
HETATM   25  O           1     -14.759  29.957  51.359  0.00  0.00    -0.348 OA
BRANCH  25  26
HETATM   26  C           1     -14.323  30.902  52.309  0.00  0.00     0.292 C 
HETATM   27  O           1     -12.979  31.229  52.030  0.00  0.00    -0.351 OA
HETATM   28  C           1     -12.060  30.357  52.623  0.00  0.00     0.152 C 
HETATM   29  C           1     -10.679  30.621  52.024  0.00  0.00     0.042 C 
HETATM   30  C           1     -12.064  30.550  54.136  0.00  0.00     0.178 C 
HETATM   31  C           1     -13.452  30.916  54.636  0.00  0.00     0.183 C 
HETATM   32  C           1     -14.498  30.338  53.707  0.00  0.00     0.204 C 
BRANCH  30  33
HETATM   33  O           1     -11.670  29.348  54.753  0.00  0.00    -0.390 OA
HETATM   34  H           1     -12.359  28.685  54.675  0.00  0.00     0.210 HD
ENDBRANCH  30  33
BRANCH  31  35
HETATM   35  O           1     -13.656  30.404  55.931  0.00  0.00    -0.390 OA
HETATM   36  H           1     -14.497  29.940  55.952  0.00  0.00     0.210 HD
ENDBRANCH  31  35
BRANCH  32  37
HETATM   37  O           1     -15.767  30.669  54.218  0.00  0.00    -0.388 OA
HETATM   38  H           1     -16.024  29.986  54.844  0.00  0.00     0.210 HD
ENDBRANCH  32  37
ENDBRANCH  25  26
ENDBRANCH  18  25
BRANCH  19  39
HETATM   39  C           1     -14.051  29.625  48.532  0.00  0.00     0.198 C 
BRANCH  39  40
HETATM   40  O           1     -13.037  29.207  49.423  0.00  0.00    -0.398 OA
HETATM   41  H           1     -12.960  29.846  50.136  0.00  0.00     0.209 HD
ENDBRANCH  39  40
ENDBRANCH  19  39
ENDBRANCH  14  15
ENDBRANCH  13  14
ENDBRANCH   7  13
BRANCH   9  42
HETATM   42  O           1     -20.621  32.854  45.536  0.00  0.00    -0.352 OA
BRANCH  42  43
HETATM   43  C           1     -21.845  33.073  46.193  0.00  0.00     0.135 C 
HETATM   44  C           1     -21.945  32.584  47.659  0.00  0.00     0.008 C 
HETATM   45  C           1     -23.293  33.134  48.266  0.00  0.00     0.007 C 
HETATM   46  C           1     -21.876  31.043  47.819  0.00  0.00     0.020 C 
HETATM   47  C           1     -24.584  32.962  47.393  0.00  0.00    -0.032 C 
HETATM   48  C           1     -23.160  34.577  48.813  0.00  0.00     0.007 C 
HETATM   49  C           1     -25.783  33.748  48.023  0.00  0.00     0.025 C 
HETATM   50  C           1     -24.340  33.321  45.910  0.00  0.00     0.012 C 
HETATM   51  C           1     -25.047  31.471  47.404  0.00  0.00     0.016 C 
HETATM   52  C           1     -25.663  35.207  48.562  0.00  0.00    -0.026 C 
HETATM   53  C           1     -27.113  33.646  47.324  0.00  0.00    -0.021 C 
HETATM   54  C           1     -27.022  35.695  49.302  0.00  0.00     0.002 C 
HETATM   55  C           1     -24.425  35.140  49.486  0.00  0.00     0.011 C 
HETATM   56  C           1     -25.299  36.190  47.419  0.00  0.00     0.016 C 
HETATM   57  C           1     -28.093  34.552  49.402  0.00  0.00     0.091 C 
HETATM   58  C           1     -26.790  36.223  50.744  0.00  0.00     0.046 C 
HETATM   59  C           1     -27.679  36.890  48.544  0.00  0.00     0.019 C 
HETATM   60  O           1     -27.629  33.591  50.327  0.00  0.00    -0.374 OA
HETATM   61  C           1     -29.464  34.942  49.995  0.00  0.00     0.039 C 
HETATM   62  C           1     -28.213  34.008  47.994  0.00  0.00     0.008 C 
HETATM   63  C           1     -28.213  33.837  51.585  0.00  0.00     0.181 C 
HETATM   64  C           1     -29.002  35.135  51.439  0.00  0.00     0.014 C 
HETATM   65  C           1     -28.076  36.356  51.565  0.00  0.00     0.130 C 
HETATM   66  C           1     -30.245  35.261  52.320  0.00  0.00     0.015 C 
HETATM   67  C           1     -31.512  34.793  51.577  0.00  0.00     0.010 C 
HETATM   68  C           1     -31.316  33.230  51.176  0.00  0.00    -0.047 C 
HETATM   69  C           1     -30.589  33.859  49.877  0.00  0.00     0.017 C 
HETATM   70  C           1     -32.038  32.228  50.103  0.00  0.00     0.015 C 
HETATM   71  C           1     -32.701  33.027  51.968  0.00  0.00     0.015 C 
HETATM   72  C           1     -23.052  32.729  45.322  0.00  0.00     0.034 C 
BRANCH  44  73
HETATM   73  C           1     -20.696  33.101  48.417  0.00  0.00     0.176 C 
BRANCH  73  74
HETATM   74  O           1     -19.519  32.460  47.963  0.00  0.00    -0.400 OA
HETATM   75  H           1     -19.693  32.050  47.113  0.00  0.00     0.209 HD
ENDBRANCH  73  74
ENDBRANCH  44  73
BRANCH  65  76
HETATM   76  O           1     -27.727  36.539  52.919  0.00  0.00    -0.395 OA
HETATM   77  H           1     -27.005  35.948  53.145  0.00  0.00     0.210 HD
ENDBRANCH  65  76
ENDBRANCH  42  43
ENDBRANCH   9  42
BRANCH  10  78
HETATM   78  O           1     -20.805  32.596  42.489  0.00  0.00    -0.388 OA
HETATM   79  H           1     -21.665  32.183  42.586  0.00  0.00     0.210 HD
ENDBRANCH  10  78
ENDBRANCH   4   5
ENDBRANCH   3   4
BRANCH   3  80
HETATM   80  O           1     -19.555  27.058  44.497  0.00  0.00    -0.335 OA
BRANCH  80  81
HETATM   81  C           1     -20.729  26.482  45.020  0.00  0.00     0.193 C 
HETATM   82  C           1     -20.854  24.981  44.797  0.00  0.00     0.181 C 
HETATM   83  C           1     -22.131  24.471  45.465  0.00  0.00     0.180 C 
HETATM   84  O           1     -23.243  25.133  44.930  0.00  0.00    -0.348 OA
HETATM   85  C           1     -23.248  26.515  45.225  0.00  0.00     0.292 C 
HETATM   86  C           1     -22.023  27.179  44.626  0.00  0.00     0.205 C 
BRANCH  82  87
HETATM   87  O           1     -19.727  24.329  45.334  0.00  0.00    -0.390 OA
HETATM   88  H           1     -19.659  23.438  44.979  0.00  0.00     0.210 HD
ENDBRANCH  82  87
BRANCH  83  89
HETATM   89  C           1     -22.323  22.972  45.254  0.00  0.00     0.205 C 
BRANCH  89  90
HETATM   90  O           1     -21.558  22.292  46.217  0.00  0.00    -0.356 OA
BRANCH  90  91
HETATM   91  C           1     -21.337  20.930  45.914  0.00  0.00     0.291 C 
HETATM   92  C           1     -21.036  20.814  44.439  0.00  0.00     0.204 C 
HETATM   93  C           1     -20.951  19.363  44.002  0.00  0.00     0.183 C 
HETATM   94  C           1     -21.818  18.469  44.876  0.00  0.00     0.187 C 
HETATM   95  C           1     -22.983  19.243  45.490  0.00  0.00     0.180 C 
HETATM   96  O           1     -22.566  20.326  46.276  0.00  0.00    -0.348 OA
BRANCH  92  97
HETATM   97  O           1     -19.809  21.445  44.144  0.00  0.00    -0.388 OA
HETATM   98  H           1     -19.985  22.288  43.719  0.00  0.00     0.210 HD
ENDBRANCH  92  97
BRANCH  93  99
HETATM   99  O           1     -19.608  18.950  44.128  0.00  0.00    -0.390 OA
HETATM  100  H           1     -19.233  18.706  43.281  0.00  0.00     0.210 HD
ENDBRANCH  93  99
BRANCH  94 101
HETATM  101  O           1     -22.361  17.378  44.180  0.00  0.00    -0.348 OA
BRANCH 101 102
HETATM  102  C           1     -21.792  16.109  44.420  0.00  0.00     0.292 C 
HETATM  103  C           1     -22.665  15.388  45.424  0.00  0.00     0.204 C 
HETATM  104  C           1     -22.016  14.079  45.813  0.00  0.00     0.183 C 
HETATM  105  C           1     -20.622  14.367  46.330  0.00  0.00     0.178 C 
HETATM  106  C           1     -19.837  15.137  45.276  0.00  0.00     0.152 C 
HETATM  107  C           1     -18.435  15.504  45.765  0.00  0.00     0.042 C 
HETATM  108  O           1     -20.504  16.326  44.945  0.00  0.00    -0.351 OA
BRANCH 103 109
HETATM  109  O           1     -23.922  15.114  44.855  0.00  0.00    -0.388 OA
HETATM  110  H           1     -24.079  14.167  44.904  0.00  0.00     0.210 HD
ENDBRANCH 103 109
BRANCH 104 111
HETATM  111  O           1     -22.777  13.459  46.818  0.00  0.00    -0.390 OA
HETATM  112  H           1     -22.374  13.650  47.669  0.00  0.00     0.210 HD
ENDBRANCH 104 111
BRANCH 105 113
HETATM  113  O           1     -20.005  13.135  46.615  0.00  0.00    -0.390 OA
HETATM  114  H           1     -20.053  12.945  47.554  0.00  0.00     0.210 HD
ENDBRANCH 105 113
ENDBRANCH 101 102
ENDBRANCH  94 101
BRANCH  95 115
HETATM  115  C           1     -24.061  19.664  44.495  0.00  0.00     0.198 C 
BRANCH 115 116
HETATM  116  O           1     -25.095  18.696  44.465  0.00  0.00    -0.398 OA
HETATM  117  H           1     -25.657  18.786  45.241  0.00  0.00     0.209 HD
ENDBRANCH 115 116
ENDBRANCH  95 115
ENDBRANCH  90  91
ENDBRANCH  89  90
ENDBRANCH  83  89
BRANCH  85 118
HETATM  118  O           1     -24.378  27.006  44.529  0.00  0.00    -0.352 OA
BRANCH 118 119
HETATM  119  C           1     -25.631  26.712  45.085  0.00  0.00     0.135 C 
HETATM  120  C           1     -25.973  27.667  46.243  0.00  0.00     0.034 C 
HETATM  121  C           1     -26.855  28.877  45.868  0.00  0.00     0.012 C 
HETATM  122  C           1     -26.685  29.338  44.407  0.00  0.00    -0.032 C 
HETATM  123  C           1     -25.179  29.746  44.278  0.00  0.00     0.016 C 
HETATM  124  C           1     -27.120  28.153  43.492  0.00  0.00     0.007 C 
HETATM  125  C           1     -27.460  30.642  44.023  0.00  0.00     0.025 C 
HETATM  126  C           1     -26.691  26.708  43.953  0.00  0.00     0.008 C 
HETATM  127  C           1     -28.605  28.207  43.052  0.00  0.00     0.007 C 
HETATM  128  C           1     -26.111  25.980  42.701  0.00  0.00     0.020 C 
HETATM  129  C           1     -29.239  29.580  42.748  0.00  0.00     0.011 C 
HETATM  130  C           1     -29.006  30.646  43.858  0.00  0.00    -0.026 C 
HETATM  131  C           1     -29.760  30.144  45.118  0.00  0.00     0.016 C 
HETATM  132  C           1     -29.537  32.125  43.489  0.00  0.00     0.002 C 
HETATM  133  C           1     -30.817  31.973  42.620  0.00  0.00     0.019 C 
HETATM  134  C           1     -29.995  32.897  44.765  0.00  0.00     0.046 C 
HETATM  135  C           1     -28.482  33.044  42.772  0.00  0.00     0.091 C 
HETATM  136  C           1     -30.035  34.428  44.689  0.00  0.00     0.130 C 
HETATM  137  C           1     -28.905  35.049  43.852  0.00  0.00     0.014 C 
HETATM  138  C           1     -28.339  36.337  44.457  0.00  0.00     0.015 C 
HETATM  139  C           1     -29.259  35.163  42.370  0.00  0.00     0.181 C 
HETATM  140  C           1     -27.772  34.034  43.727  0.00  0.00     0.039 C 
HETATM  141  C           1     -26.814  36.227  44.674  0.00  0.00     0.010 C 
HETATM  142  C           1     -26.094  36.246  43.229  0.00  0.00    -0.047 C 
HETATM  143  C           1     -25.143  37.367  43.891  0.00  0.00     0.015 C 
HETATM  144  C           1     -24.678  35.759  42.578  0.00  0.00     0.015 C 
HETATM  145  C           1     -26.439  34.662  43.217  0.00  0.00     0.017 C 
HETATM  146  O           1     -29.115  33.878  41.825  0.00  0.00    -0.374 OA
HETATM  147  C           1     -27.462  32.193  42.072  0.00  0.00     0.008 C 
HETATM  148  C           1     -26.944  31.124  42.678  0.00  0.00    -0.021 C 
BRANCH 126 149
HETATM  149  C           1     -27.835  25.756  44.395  0.00  0.00     0.176 C 
BRANCH 149 150
HETATM  150  O           1     -28.112  24.747  43.448  0.00  0.00    -0.400 OA
HETATM  151  H           1     -28.909  24.979  42.964  0.00  0.00     0.209 HD
ENDBRANCH 149 150
ENDBRANCH 126 149
BRANCH 136 152
HETATM  152  O           1     -31.295  34.873  44.250  0.00  0.00    -0.395 OA
HETATM  153  H           1     -31.197  35.357  43.426  0.00  0.00     0.210 HD
ENDBRANCH 136 152
ENDBRANCH 118 119
ENDBRANCH  85 118
BRANCH  86 154
HETATM  154  O           1     -21.957  28.521  45.047  0.00  0.00    -0.388 OA
HETATM  155  H           1     -21.912  29.094  44.277  0.00  0.00     0.210 HD
ENDBRANCH  86 154
ENDBRANCH  80  81
ENDBRANCH   3  80
TORSDOF 42
ENDMDL
MODEL 6
REMARK VINA RESULT:      -8.3      4.653     15.011
REMARK WARNING: 32 MAX_TORS EXCEEDED!!!
REMARK  42 active torsions:
REMARK  status: ('A' for Active; 'I' for Inactive)
REMARK    1  A    between atoms: C_13  and  O_31 
REMARK    2  A    between atoms: C_14  and  O_32 
REMARK    3  A    between atoms: C_14  and  C_16 
REMARK    4  A    between atoms: C_15  and  O_31 
REMARK    5  A    between atoms: C_17  and  O_30 
REMARK    6  A    between atoms: C_18  and  O_29 
REMARK    7  A    between atoms: C_19  and  O_27 
REMARK    8  A    between atoms: C_20  and  O_27 
REMARK    9  A    between atoms: C_20  and  C_22 
REMARK   10  A    between atoms: C_21  and  O_26 
REMARK   11  A    between atoms: O_24  and  C_46 
REMARK   12  A    between atoms: O_25  and  C_65 
REMARK   13  A    between atoms: O_25  and  C_71 
REMARK   14  A    between atoms: O_35  and  C_155 
REMARK   15  A    between atoms: O_36  and  C_154 
REMARK   16  A    between atoms: O_37  and  C_152 
REMARK   17  A    between atoms: O_50  and  C_72 
REMARK   18  A    between atoms: O_51  and  C_73 
REMARK   19  A    between atoms: O_51  and  Pt_84 
REMARK   20  A    between atoms: O_52  and  C_69 
REMARK   21  A    between atoms: C_60  and  C_69 
REMARK   22  A    between atoms: Pt_84  and  O_144 
REMARK   23  A    between atoms: C_86  and  O_133 
REMARK   24  A    between atoms: C_88  and  O_134 
REMARK   25  A    between atoms: C_89  and  O_135 
REMARK   26  A    between atoms: C_90  and  O_138 
REMARK   27  A    between atoms: C_91  and  O_137 
REMARK   28  A    between atoms: C_91  and  C_93 
REMARK   29  A    between atoms: C_92  and  O_138 
REMARK   30  A    between atoms: C_94  and  O_139 
REMARK   31  A    between atoms: C_95  and  O_140 
REMARK   32  A    between atoms: C_96  and  O_142 
REMARK   33  A    between atoms: C_97  and  O_142 
REMARK   34  A    between atoms: C_97  and  C_99 
REMARK   35  A    between atoms: C_98  and  O_143 
REMARK   36  A    between atoms: C_100  and  O_144 
REMARK   37  A    between atoms: C_101  and  O_145 
REMARK   38  A    between atoms: C_102  and  O_148 
REMARK   39  A    between atoms: C_104  and  O_147 
REMARK   40  A    between atoms: C_104  and  C_113 
REMARK   41  A    between atoms: C_108  and  O_148 
REMARK   42  A    between atoms: C_124  and  O_149 
ROOT
HETATM    1  Cl          1     -20.883  -5.753  64.008  0.00  0.00     0.098 C 
HETATM    2  Cl          1     -21.945  -2.237  63.865  0.00  0.00     0.098 C 
HETATM    3  Pt          1     -21.251  -4.002  62.606  0.00  0.00     0.090 P 
ENDROOT
BRANCH   3   4
HETATM    4  O           1     -22.728  -4.358  61.423  0.00  0.00    -0.335 OA
BRANCH   4   5
HETATM    5  C           1     -23.981  -3.739  61.586  0.00  0.00     0.193 C 
HETATM    6  C           1     -25.053  -4.796  61.292  0.00  0.00     0.181 C 
HETATM    7  C           1     -25.468  -4.819  59.818  0.00  0.00     0.180 C 
HETATM    8  O           1     -24.383  -4.483  59.004  0.00  0.00    -0.348 OA
HETATM    9  C           1     -23.981  -3.133  59.160  0.00  0.00     0.292 C 
HETATM   10  C           1     -24.231  -2.625  60.569  0.00  0.00     0.205 C 
BRANCH   6  11
HETATM   11  O           1     -26.203  -4.540  62.066  0.00  0.00    -0.390 OA
HETATM   12  H           1     -26.338  -5.273  62.673  0.00  0.00     0.210 HD
ENDBRANCH   6  11
BRANCH   7  13
HETATM   13  C           1     -25.999  -6.192  59.424  0.00  0.00     0.205 C 
BRANCH  13  14
HETATM   14  O           1     -27.384  -6.066  59.218  0.00  0.00    -0.356 OA
BRANCH  14  15
HETATM   15  C           1     -27.900  -6.966  58.259  0.00  0.00     0.291 C 
HETATM   16  C           1     -27.249  -8.314  58.439  0.00  0.00     0.204 C 
HETATM   17  C           1     -27.600  -9.243  57.294  0.00  0.00     0.183 C 
HETATM   18  C           1     -27.296  -8.579  55.957  0.00  0.00     0.187 C 
HETATM   19  C           1     -27.885  -7.160  55.922  0.00  0.00     0.180 C 
HETATM   20  O           1     -27.472  -6.415  57.035  0.00  0.00    -0.348 OA
BRANCH  16  21
HETATM   21  O           1     -27.684  -8.916  59.634  0.00  0.00    -0.388 OA
HETATM   22  H           1     -28.175  -9.709  59.400  0.00  0.00     0.210 HD
ENDBRANCH  16  21
BRANCH  17  23
HETATM   23  O           1     -26.838 -10.413  57.502  0.00  0.00    -0.390 OA
HETATM   24  H           1     -25.898 -10.224  57.533  0.00  0.00     0.210 HD
ENDBRANCH  17  23
BRANCH  18  25
HETATM   25  O           1     -27.833  -9.265  54.853  0.00  0.00    -0.348 OA
BRANCH  25  26
HETATM   26  C           1     -26.956 -10.004  54.035  0.00  0.00     0.292 C 
HETATM   27  O           1     -27.182  -9.636  52.691  0.00  0.00    -0.351 OA
HETATM   28  C           1     -28.208 -10.365  52.080  0.00  0.00     0.152 C 
HETATM   29  C           1     -28.559  -9.695  50.752  0.00  0.00     0.042 C 
HETATM   30  C           1     -27.768 -11.812  51.881  0.00  0.00     0.178 C 
HETATM   31  C           1     -26.852 -12.264  53.007  0.00  0.00     0.183 C 
HETATM   32  C           1     -27.171 -11.488  54.267  0.00  0.00     0.204 C 
BRANCH  30  33
HETATM   33  O           1     -28.906 -12.641  51.872  0.00  0.00    -0.390 OA
HETATM   34  H           1     -29.707 -12.116  51.817  0.00  0.00     0.210 HD
ENDBRANCH  30  33
BRANCH  31  35
HETATM   35  O           1     -27.026 -13.638  53.257  0.00  0.00    -0.390 OA
HETATM   36  H           1     -27.966 -13.839  53.243  0.00  0.00     0.210 HD
ENDBRANCH  31  35
BRANCH  32  37
HETATM   37  O           1     -26.327 -11.955  55.293  0.00  0.00    -0.388 OA
HETATM   38  H           1     -26.667 -12.802  55.596  0.00  0.00     0.210 HD
ENDBRANCH  32  37
ENDBRANCH  25  26
ENDBRANCH  18  25
BRANCH  19  39
HETATM   39  C           1     -27.463  -6.359  54.693  0.00  0.00     0.198 C 
BRANCH  39  40
HETATM   40  O           1     -28.151  -5.128  54.618  0.00  0.00    -0.398 OA
HETATM   41  H           1     -27.536  -4.436  54.361  0.00  0.00     0.209 HD
ENDBRANCH  39  40
ENDBRANCH  19  39
ENDBRANCH  14  15
ENDBRANCH  13  14
ENDBRANCH   7  13
BRANCH   9  42
HETATM   42  O           1     -24.706  -2.393  58.199  0.00  0.00    -0.352 OA
BRANCH  42  43
HETATM   43  C           1     -24.026  -1.999  57.033  0.00  0.00     0.135 C 
HETATM   44  C           1     -24.686  -2.376  55.683  0.00  0.00     0.008 C 
HETATM   45  C           1     -23.893  -1.644  54.531  0.00  0.00     0.007 C 
HETATM   46  C           1     -24.740  -3.901  55.408  0.00  0.00     0.020 C 
HETATM   47  C           1     -22.328  -1.733  54.583  0.00  0.00    -0.032 C 
HETATM   48  C           1     -24.377  -0.191  54.301  0.00  0.00     0.007 C 
HETATM   49  C           1     -21.688  -0.782  53.516  0.00  0.00     0.025 C 
HETATM   50  C           1     -21.775  -1.501  56.007  0.00  0.00     0.012 C 
HETATM   51  C           1     -21.856  -3.161  54.164  0.00  0.00     0.016 C 
HETATM   52  C           1     -22.157   0.688  53.287  0.00  0.00    -0.026 C 
HETATM   53  C           1     -20.187  -0.786  53.408  0.00  0.00    -0.021 C 
HETATM   54  C           1     -21.423   1.368  52.010  0.00  0.00     0.002 C 
HETATM   55  C           1     -23.691   0.549  53.138  0.00  0.00     0.011 C 
HETATM   56  C           1     -21.921   1.548  54.556  0.00  0.00     0.016 C 
HETATM   57  C           1     -20.502   0.357  51.241  0.00  0.00     0.091 C 
HETATM   58  C           1     -22.409   1.963  50.968  0.00  0.00     0.046 C 
HETATM   59  C           1     -20.534   2.574  52.447  0.00  0.00     0.019 C 
HETATM   60  O           1     -21.327  -0.585  50.588  0.00  0.00    -0.374 OA
HETATM   61  C           1     -19.673   0.932  50.071  0.00  0.00     0.039 C 
HETATM   62  C           1     -19.627  -0.263  52.310  0.00  0.00     0.008 C 
HETATM   63  C           1     -21.508  -0.194  49.247  0.00  0.00     0.181 C 
HETATM   64  C           1     -20.836   1.169  49.109  0.00  0.00     0.014 C 
HETATM   65  C           1     -21.758   2.288  49.621  0.00  0.00     0.130 C 
HETATM   66  C           1     -20.253   1.487  47.732  0.00  0.00     0.015 C 
HETATM   67  C           1     -18.760   1.111  47.652  0.00  0.00     0.010 C 
HETATM   68  C           1     -18.625  -0.488  47.916  0.00  0.00    -0.047 C 
HETATM   69  C           1     -18.595  -0.029  49.466  0.00  0.00     0.017 C 
HETATM   70  C           1     -17.391  -1.474  48.338  0.00  0.00     0.015 C 
HETATM   71  C           1     -17.857  -0.487  46.504  0.00  0.00     0.015 C 
HETATM   72  C           1     -22.524  -2.267  57.105  0.00  0.00     0.034 C 
BRANCH  44  73
HETATM   73  C           1     -26.173  -1.948  55.746  0.00  0.00     0.176 C 
BRANCH  73  74
HETATM   74  O           1     -26.961  -2.925  56.400  0.00  0.00    -0.400 OA
HETATM   75  H           1     -27.434  -2.512  57.126  0.00  0.00     0.209 HD
ENDBRANCH  73  74
ENDBRANCH  44  73
BRANCH  65  76
HETATM   76  O           1     -22.777   2.522  48.674  0.00  0.00    -0.395 OA
HETATM   77  H           1     -22.829   3.462  48.487  0.00  0.00     0.210 HD
ENDBRANCH  65  76
ENDBRANCH  42  43
ENDBRANCH   9  42
BRANCH  10  78
HETATM   78  O           1     -23.449  -1.487  60.842  0.00  0.00    -0.388 OA
HETATM   79  H           1     -23.636  -1.142  61.716  0.00  0.00     0.210 HD
ENDBRANCH  10  78
ENDBRANCH   4   5
ENDBRANCH   3   4
BRANCH   3  80
HETATM   80  O           1     -19.679  -3.428  61.653  0.00  0.00    -0.335 OA
BRANCH  80  81
HETATM   81  C           1     -19.650  -3.167  60.270  0.00  0.00     0.193 C 
HETATM   82  C           1     -18.840  -4.164  59.453  0.00  0.00     0.181 C 
HETATM   83  C           1     -18.942  -3.810  57.969  0.00  0.00     0.180 C 
HETATM   84  O           1     -18.462  -2.511  57.758  0.00  0.00    -0.348 OA
HETATM   85  C           1     -19.259  -1.527  58.386  0.00  0.00     0.292 C 
HETATM   86  C           1     -19.267  -1.744  59.886  0.00  0.00     0.205 C 
BRANCH  82  87
HETATM   87  O           1     -19.329  -5.466  59.679  0.00  0.00    -0.390 OA
HETATM   88  H           1     -20.040  -5.664  59.063  0.00  0.00     0.210 HD
ENDBRANCH  82  87
BRANCH  83  89
HETATM   89  C           1     -18.127  -4.763  57.099  0.00  0.00     0.205 C 
BRANCH  89  90
HETATM   90  O           1     -18.542  -4.602  55.765  0.00  0.00    -0.356 OA
BRANCH  90  91
HETATM   91  C           1     -18.791  -5.820  55.094  0.00  0.00     0.291 C 
HETATM   92  C           1     -19.492  -5.510  53.793  0.00  0.00     0.204 C 
HETATM   93  C           1     -19.943  -6.777  53.089  0.00  0.00     0.183 C 
HETATM   94  C           1     -20.219  -7.895  54.084  0.00  0.00     0.187 C 
HETATM   95  C           1     -20.603  -7.344  55.456  0.00  0.00     0.180 C 
HETATM   96  O           1     -19.613  -6.520  56.010  0.00  0.00    -0.348 OA
BRANCH  92  97
HETATM   97  O           1     -18.626  -4.803  52.932  0.00  0.00    -0.388 OA
HETATM   98  H           1     -17.806  -5.295  52.839  0.00  0.00     0.210 HD
ENDBRANCH  92  97
BRANCH  93  99
HETATM   99  O           1     -18.904  -7.188  52.228  0.00  0.00    -0.390 OA
HETATM  100  H           1     -18.261  -6.491  52.094  0.00  0.00     0.210 HD
ENDBRANCH  93  99
BRANCH  94 101
HETATM  101  O           1     -21.251  -8.753  53.674  0.00  0.00    -0.348 OA
BRANCH 101 102
HETATM  102  C           1     -21.686  -8.651  52.336  0.00  0.00     0.292 C 
HETATM  103  C           1     -23.177  -8.909  52.308  0.00  0.00     0.204 C 
HETATM  104  C           1     -23.658  -8.946  50.874  0.00  0.00     0.183 C 
HETATM  105  C           1     -22.855  -9.988  50.123  0.00  0.00     0.178 C 
HETATM  106  C           1     -21.370  -9.677  50.250  0.00  0.00     0.152 C 
HETATM  107  C           1     -20.506 -10.729  49.555  0.00  0.00     0.042 C 
HETATM  108  O           1     -20.996  -9.635  51.601  0.00  0.00    -0.351 OA
BRANCH 103 109
HETATM  109  O           1     -23.854  -7.877  52.982  0.00  0.00    -0.388 OA
HETATM  110  H           1     -24.494  -7.489  52.380  0.00  0.00     0.210 HD
ENDBRANCH 103 109
BRANCH 104 111
HETATM  111  O           1     -25.021  -9.285  50.846  0.00  0.00    -0.390 OA
HETATM  112  H           1     -25.465  -8.716  50.212  0.00  0.00     0.210 HD
ENDBRANCH 104 111
BRANCH 105 113
HETATM  113  O           1     -23.262  -9.956  48.776  0.00  0.00    -0.390 OA
HETATM  114  H           1     -22.646  -9.442  48.251  0.00  0.00     0.210 HD
ENDBRANCH 105 113
ENDBRANCH 101 102
ENDBRANCH  94 101
BRANCH  95 115
HETATM  115  C           1     -21.975  -6.676  55.512  0.00  0.00     0.198 C 
BRANCH 115 116
HETATM  116  O           1     -22.028  -5.775  56.604  0.00  0.00    -0.398 OA
HETATM  117  H           1     -21.141  -5.499  56.851  0.00  0.00     0.209 HD
ENDBRANCH 115 116
ENDBRANCH  95 115
ENDBRANCH  90  91
ENDBRANCH  89  90
ENDBRANCH  83  89
BRANCH  85 118
HETATM  118  O           1     -18.567  -0.320  58.137  0.00  0.00    -0.352 OA
BRANCH 118 119
HETATM  119  C           1     -17.179  -0.420  57.958  0.00  0.00     0.135 C 
HETATM  120  C           1     -16.814  -0.610  56.475  0.00  0.00     0.034 C 
HETATM  121  C           1     -16.430   0.677  55.714  0.00  0.00     0.012 C 
HETATM  122  C           1     -17.103   1.949  56.268  0.00  0.00    -0.032 C 
HETATM  123  C           1     -18.641   1.702  56.106  0.00  0.00     0.016 C 
HETATM  124  C           1     -16.622   2.125  57.741  0.00  0.00     0.007 C 
HETATM  125  C           1     -16.845   3.255  55.445  0.00  0.00     0.025 C 
HETATM  126  C           1     -16.501   0.815  58.608  0.00  0.00     0.008 C 
HETATM  127  C           1     -15.383   3.042  57.895  0.00  0.00     0.007 C 
HETATM  128  C           1     -17.174   1.111  59.985  0.00  0.00     0.020 C 
HETATM  129  C           1     -15.253   4.274  56.976  0.00  0.00     0.011 C 
HETATM  130  C           1     -15.462   3.963  55.465  0.00  0.00    -0.026 C 
HETATM  131  C           1     -14.291   3.038  55.037  0.00  0.00     0.016 C 
HETATM  132  C           1     -15.473   5.263  54.508  0.00  0.00     0.002 C 
HETATM  133  C           1     -14.482   6.304  55.100  0.00  0.00     0.019 C 
HETATM  134  C           1     -14.919   4.928  53.089  0.00  0.00     0.046 C 
HETATM  135  C           1     -16.890   5.907  54.288  0.00  0.00     0.091 C 
HETATM  136  C           1     -15.320   5.854  51.936  0.00  0.00     0.130 C 
HETATM  137  C           1     -16.758   6.392  52.027  0.00  0.00     0.014 C 
HETATM  138  C           1     -17.470   6.451  50.673  0.00  0.00     0.015 C 
HETATM  139  C           1     -16.858   7.682  52.838  0.00  0.00     0.181 C 
HETATM  140  C           1     -17.561   5.487  52.957  0.00  0.00     0.039 C 
HETATM  141  C           1     -18.792   5.652  50.702  0.00  0.00     0.010 C 
HETATM  142  C           1     -19.849   6.456  51.621  0.00  0.00    -0.047 C 
HETATM  143  C           1     -20.856   6.235  50.382  0.00  0.00     0.015 C 
HETATM  144  C           1     -21.199   6.128  52.478  0.00  0.00     0.015 C 
HETATM  145  C           1     -19.101   5.710  52.850  0.00  0.00     0.017 C 
HETATM  146  O           1     -16.787   7.311  54.189  0.00  0.00    -0.374 OA
HETATM  147  C           1     -17.788   5.561  55.441  0.00  0.00     0.008 C 
HETATM  148  C           1     -17.814   4.320  55.929  0.00  0.00    -0.021 C 
BRANCH 126 149
HETATM  149  C           1     -15.067   0.389  59.020  0.00  0.00     0.176 C 
BRANCH 149 150
HETATM  150  O           1     -14.737   0.764  60.340  0.00  0.00    -0.400 OA
HETATM  151  H           1     -15.431   0.469  60.935  0.00  0.00     0.209 HD
ENDBRANCH 149 150
ENDBRANCH 126 149
BRANCH 136 152
HETATM  152  O           1     -14.394   6.904  51.794  0.00  0.00    -0.395 OA
HETATM  153  H           1     -14.777   7.719  52.129  0.00  0.00     0.210 HD
ENDBRANCH 136 152
ENDBRANCH 118 119
ENDBRANCH  85 118
BRANCH  86 154
HETATM  154  O           1     -20.179  -0.857  60.490  0.00  0.00    -0.388 OA
HETATM  155  H           1     -20.752  -1.347  61.086  0.00  0.00     0.210 HD
ENDBRANCH  86 154
ENDBRANCH  80  81
ENDBRANCH   3  80
TORSDOF 42
ENDMDL
MODEL 7
REMARK VINA RESULT:      -8.2      4.559     15.380
REMARK WARNING: 32 MAX_TORS EXCEEDED!!!
REMARK  42 active torsions:
REMARK  status: ('A' for Active; 'I' for Inactive)
REMARK    1  A    between atoms: C_13  and  O_31 
REMARK    2  A    between atoms: C_14  and  O_32 
REMARK    3  A    between atoms: C_14  and  C_16 
REMARK    4  A    between atoms: C_15  and  O_31 
REMARK    5  A    between atoms: C_17  and  O_30 
REMARK    6  A    between atoms: C_18  and  O_29 
REMARK    7  A    between atoms: C_19  and  O_27 
REMARK    8  A    between atoms: C_20  and  O_27 
REMARK    9  A    between atoms: C_20  and  C_22 
REMARK   10  A    between atoms: C_21  and  O_26 
REMARK   11  A    between atoms: O_24  and  C_46 
REMARK   12  A    between atoms: O_25  and  C_65 
REMARK   13  A    between atoms: O_25  and  C_71 
REMARK   14  A    between atoms: O_35  and  C_155 
REMARK   15  A    between atoms: O_36  and  C_154 
REMARK   16  A    between atoms: O_37  and  C_152 
REMARK   17  A    between atoms: O_50  and  C_72 
REMARK   18  A    between atoms: O_51  and  C_73 
REMARK   19  A    between atoms: O_51  and  Pt_84 
REMARK   20  A    between atoms: O_52  and  C_69 
REMARK   21  A    between atoms: C_60  and  C_69 
REMARK   22  A    between atoms: Pt_84  and  O_144 
REMARK   23  A    between atoms: C_86  and  O_133 
REMARK   24  A    between atoms: C_88  and  O_134 
REMARK   25  A    between atoms: C_89  and  O_135 
REMARK   26  A    between atoms: C_90  and  O_138 
REMARK   27  A    between atoms: C_91  and  O_137 
REMARK   28  A    between atoms: C_91  and  C_93 
REMARK   29  A    between atoms: C_92  and  O_138 
REMARK   30  A    between atoms: C_94  and  O_139 
REMARK   31  A    between atoms: C_95  and  O_140 
REMARK   32  A    between atoms: C_96  and  O_142 
REMARK   33  A    between atoms: C_97  and  O_142 
REMARK   34  A    between atoms: C_97  and  C_99 
REMARK   35  A    between atoms: C_98  and  O_143 
REMARK   36  A    between atoms: C_100  and  O_144 
REMARK   37  A    between atoms: C_101  and  O_145 
REMARK   38  A    between atoms: C_102  and  O_148 
REMARK   39  A    between atoms: C_104  and  O_147 
REMARK   40  A    between atoms: C_104  and  C_113 
REMARK   41  A    between atoms: C_108  and  O_148 
REMARK   42  A    between atoms: C_124  and  O_149 
ROOT
HETATM    1  Cl          1     -20.655  -5.525  64.107  0.00  0.00     0.098 C 
HETATM    2  Cl          1     -21.945  -2.084  64.014  0.00  0.00     0.098 C 
HETATM    3  Pt          1     -21.135  -3.781  62.730  0.00  0.00     0.090 P 
ENDROOT
BRANCH   3   4
HETATM    4  O           1     -22.583  -4.214  61.537  0.00  0.00    -0.335 OA
BRANCH   4   5
HETATM    5  C           1     -23.867  -3.660  61.690  0.00  0.00     0.193 C 
HETATM    6  C           1     -24.881  -4.764  61.360  0.00  0.00     0.181 C 
HETATM    7  C           1     -25.271  -4.780  59.879  0.00  0.00     0.180 C 
HETATM    8  O           1     -24.191  -4.377  59.089  0.00  0.00    -0.348 OA
HETATM    9  C           1     -23.859  -3.011  59.275  0.00  0.00     0.292 C 
HETATM   10  C           1     -24.156  -2.542  60.688  0.00  0.00     0.205 C 
BRANCH   6  11
HETATM   11  O           1     -26.054  -4.578  62.119  0.00  0.00    -0.390 OA
HETATM   12  H           1     -26.243  -5.389  62.601  0.00  0.00     0.210 HD
ENDBRANCH   6  11
BRANCH   7  13
HETATM   13  C           1     -25.727  -6.170  59.454  0.00  0.00     0.205 C 
BRANCH  13  14
HETATM   14  O           1     -27.119  -6.235  59.643  0.00  0.00    -0.356 OA
BRANCH  14  15
HETATM   15  C           1     -27.788  -7.021  58.679  0.00  0.00     0.291 C 
HETATM   16  C           1     -27.247  -8.428  58.721  0.00  0.00     0.204 C 
HETATM   17  C           1     -27.770  -9.245  57.555  0.00  0.00     0.183 C 
HETATM   18  C           1     -27.516  -8.520  56.240  0.00  0.00     0.187 C 
HETATM   19  C           1     -27.977  -7.057  56.341  0.00  0.00     0.180 C 
HETATM   20  O           1     -27.412  -6.427  57.458  0.00  0.00    -0.348 OA
BRANCH  16  21
HETATM   21  O           1     -27.637  -9.071  59.909  0.00  0.00    -0.388 OA
HETATM   22  H           1     -27.842  -9.986  59.694  0.00  0.00     0.210 HD
ENDBRANCH  16  21
BRANCH  17  23
HETATM   23  O           1     -27.102 -10.486  57.626  0.00  0.00    -0.390 OA
HETATM   24  H           1     -26.171 -10.377  57.832  0.00  0.00     0.210 HD
ENDBRANCH  17  23
BRANCH  18  25
HETATM   25  O           1     -28.200  -9.082  55.147  0.00  0.00    -0.348 OA
BRANCH  25  26
HETATM   26  C           1     -27.521 -10.025  54.349  0.00  0.00     0.292 C 
HETATM   27  O           1     -26.805  -9.332  53.350  0.00  0.00    -0.351 OA
HETATM   28  C           1     -27.565  -9.060  52.208  0.00  0.00     0.152 C 
HETATM   29  C           1     -26.797  -8.068  51.334  0.00  0.00     0.042 C 
HETATM   30  C           1     -27.860 -10.357  51.461  0.00  0.00     0.178 C 
HETATM   31  C           1     -28.021 -11.518  52.428  0.00  0.00     0.183 C 
HETATM   32  C           1     -28.518 -11.007  53.763  0.00  0.00     0.204 C 
BRANCH  30  33
HETATM   33  O           1     -29.060 -10.207  50.740  0.00  0.00    -0.390 OA
HETATM   34  H           1     -29.391  -9.310  50.815  0.00  0.00     0.210 HD
ENDBRANCH  30  33
BRANCH  31  35
HETATM   35  O           1     -28.944 -12.452  51.921  0.00  0.00    -0.390 OA
HETATM   36  H           1     -28.524 -13.315  51.884  0.00  0.00     0.210 HD
ENDBRANCH  31  35
BRANCH  32  37
HETATM   37  O           1     -28.685 -12.112  54.619  0.00  0.00    -0.388 OA
HETATM   38  H           1     -29.289 -12.729  54.196  0.00  0.00     0.210 HD
ENDBRANCH  32  37
ENDBRANCH  25  26
ENDBRANCH  18  25
BRANCH  19  39
HETATM   39  C           1     -27.585  -6.213  55.132  0.00  0.00     0.198 C 
BRANCH  39  40
HETATM   40  O           1     -26.388  -6.679  54.543  0.00  0.00    -0.398 OA
HETATM   41  H           1     -26.365  -7.638  54.586  0.00  0.00     0.209 HD
ENDBRANCH  39  40
ENDBRANCH  19  39
ENDBRANCH  14  15
ENDBRANCH  13  14
ENDBRANCH   7  13
BRANCH   9  42
HETATM   42  O           1     -24.605  -2.291  58.316  0.00  0.00    -0.352 OA
BRANCH  42  43
HETATM   43  C           1     -23.945  -1.907  57.134  0.00  0.00     0.135 C 
HETATM   44  C           1     -24.625  -2.298  55.799  0.00  0.00     0.008 C 
HETATM   45  C           1     -23.854  -1.575  54.628  0.00  0.00     0.007 C 
HETATM   46  C           1     -24.678  -3.827  55.540  0.00  0.00     0.020 C 
HETATM   47  C           1     -22.288  -1.659  54.655  0.00  0.00    -0.032 C 
HETATM   48  C           1     -24.347  -0.126  54.391  0.00  0.00     0.007 C 
HETATM   49  C           1     -21.669  -0.716  53.568  0.00  0.00     0.025 C 
HETATM   50  C           1     -21.713  -1.411  56.067  0.00  0.00     0.012 C 
HETATM   51  C           1     -21.818  -3.089  54.242  0.00  0.00     0.016 C 
HETATM   52  C           1     -22.147   0.750  53.332  0.00  0.00    -0.026 C 
HETATM   53  C           1     -20.169  -0.716  53.435  0.00  0.00    -0.021 C 
HETATM   54  C           1     -21.435   1.420  52.037  0.00  0.00     0.002 C 
HETATM   55  C           1     -23.682   0.604  53.210  0.00  0.00     0.011 C 
HETATM   56  C           1     -21.893   1.623  54.589  0.00  0.00     0.016 C 
HETATM   57  C           1     -20.523   0.404  51.263  0.00  0.00     0.091 C 
HETATM   58  C           1     -22.440   2.001  51.006  0.00  0.00     0.046 C 
HETATM   59  C           1     -20.544   2.633  52.448  0.00  0.00     0.019 C 
HETATM   60  O           1     -21.356  -0.547  50.633  0.00  0.00    -0.374 OA
HETATM   61  C           1     -19.715   0.971  50.075  0.00  0.00     0.039 C 
HETATM   62  C           1     -19.629  -0.203  52.324  0.00  0.00     0.008 C 
HETATM   63  C           1     -21.560  -0.170  49.291  0.00  0.00     0.181 C 
HETATM   64  C           1     -20.895   1.195  49.129  0.00  0.00     0.014 C 
HETATM   65  C           1     -21.812   2.315  49.645  0.00  0.00     0.130 C 
HETATM   66  C           1     -20.336   1.501  47.739  0.00  0.00     0.015 C 
HETATM   67  C           1     -18.843   1.128  47.639  0.00  0.00     0.010 C 
HETATM   68  C           1     -18.699  -0.467  47.917  0.00  0.00    -0.047 C 
HETATM   69  C           1     -18.644   0.007  49.461  0.00  0.00     0.017 C 
HETATM   70  C           1     -17.454  -1.446  48.328  0.00  0.00     0.015 C 
HETATM   71  C           1     -17.953  -0.477  46.492  0.00  0.00     0.015 C 
HETATM   72  C           1     -22.441  -2.169  57.185  0.00  0.00     0.034 C 
BRANCH  44  73
HETATM   73  C           1     -26.113  -1.875  55.883  0.00  0.00     0.176 C 
BRANCH  73  74
HETATM   74  O           1     -26.297  -0.828  56.816  0.00  0.00    -0.400 OA
HETATM   75  H           1     -27.231  -0.614  56.868  0.00  0.00     0.209 HD
ENDBRANCH  73  74
ENDBRANCH  44  73
BRANCH  65  76
HETATM   76  O           1     -22.848   2.536  48.713  0.00  0.00    -0.395 OA
HETATM   77  H           1     -22.967   3.480  48.587  0.00  0.00     0.210 HD
ENDBRANCH  65  76
ENDBRANCH  42  43
ENDBRANCH   9  42
BRANCH  10  78
HETATM   78  O           1     -23.435  -1.372  60.994  0.00  0.00    -0.388 OA
HETATM   79  H           1     -23.916  -0.824  61.616  0.00  0.00     0.210 HD
ENDBRANCH  10  78
ENDBRANCH   4   5
ENDBRANCH   3   4
BRANCH   3  80
HETATM   80  O           1     -19.602  -3.090  61.791  0.00  0.00    -0.335 OA
BRANCH  80  81
HETATM   81  C           1     -19.604  -2.751  60.424  0.00  0.00     0.193 C 
HETATM   82  C           1     -18.825  -3.708  59.532  0.00  0.00     0.181 C 
HETATM   83  C           1     -18.960  -3.268  58.073  0.00  0.00     0.180 C 
HETATM   84  O           1     -18.472  -1.963  57.925  0.00  0.00    -0.348 OA
HETATM   85  C           1     -19.243  -1.010  58.627  0.00  0.00     0.292 C 
HETATM   86  C           1     -19.216  -1.312  60.113  0.00  0.00     0.205 C 
BRANCH  82  87
HETATM   87  O           1     -19.321  -5.016  59.696  0.00  0.00    -0.390 OA
HETATM   88  H           1     -18.593  -5.641  59.758  0.00  0.00     0.210 HD
ENDBRANCH  82  87
BRANCH  83  89
HETATM   89  C           1     -18.177  -4.178  57.131  0.00  0.00     0.205 C 
BRANCH  89  90
HETATM   90  O           1     -19.026  -4.545  56.072  0.00  0.00    -0.356 OA
BRANCH  90  91
HETATM   91  C           1     -19.231  -5.938  55.961  0.00  0.00     0.291 C 
HETATM   92  C           1     -20.198  -6.187  54.828  0.00  0.00     0.204 C 
HETATM   93  C           1     -20.600  -7.649  54.751  0.00  0.00     0.183 C 
HETATM   94  C           1     -20.534  -8.314  56.118  0.00  0.00     0.187 C 
HETATM   95  C           1     -20.724  -7.301  57.245  0.00  0.00     0.180 C 
HETATM   96  O           1     -19.766  -6.277  57.227  0.00  0.00    -0.348 OA
BRANCH  92  97
HETATM   97  O           1     -19.611  -5.818  53.599  0.00  0.00    -0.388 OA
HETATM   98  H           1     -20.216  -6.036  52.885  0.00  0.00     0.210 HD
ENDBRANCH  92  97
BRANCH  93  99
HETATM   99  O           1     -19.695  -8.302  53.889  0.00  0.00    -0.390 OA
HETATM  100  H           1     -18.792  -8.030  54.054  0.00  0.00     0.210 HD
ENDBRANCH  93  99
BRANCH  94 101
HETATM  101  O           1     -21.500  -9.316  56.290  0.00  0.00    -0.348 OA
BRANCH 101 102
HETATM  102  C           1     -21.444 -10.074  57.479  0.00  0.00     0.292 C 
HETATM  103  C           1     -21.187 -11.517  57.102  0.00  0.00     0.204 C 
HETATM  104  C           1     -21.257 -12.384  58.339  0.00  0.00     0.183 C 
HETATM  105  C           1     -22.601 -12.169  59.003  0.00  0.00     0.178 C 
HETATM  106  C           1     -22.792 -10.687  59.298  0.00  0.00     0.152 C 
HETATM  107  C           1     -24.159 -10.402  59.921  0.00  0.00     0.042 C 
HETATM  108  O           1     -22.693  -9.939  58.115  0.00  0.00    -0.351 OA
BRANCH 103 109
HETATM  109  O           1     -19.905 -11.643  56.537  0.00  0.00    -0.388 OA
HETATM  110  H           1     -19.959 -11.418  55.604  0.00  0.00     0.210 HD
ENDBRANCH 103 109
BRANCH 104 111
HETATM  111  O           1     -21.118 -13.733  57.974  0.00  0.00    -0.390 OA
HETATM  112  H           1     -21.207 -14.275  58.762  0.00  0.00     0.210 HD
ENDBRANCH 104 111
BRANCH 105 113
HETATM  113  O           1     -22.619 -12.923  60.191  0.00  0.00    -0.390 OA
HETATM  114  H           1     -21.888 -12.673  60.759  0.00  0.00     0.210 HD
ENDBRANCH 105 113
ENDBRANCH 101 102
ENDBRANCH  94 101
BRANCH  95 115
HETATM  115  C           1     -22.137  -6.735  57.361  0.00  0.00     0.198 C 
BRANCH 115 116
HETATM  116  O           1     -22.595  -6.848  58.697  0.00  0.00    -0.398 OA
HETATM  117  H           1     -22.818  -5.981  59.047  0.00  0.00     0.209 HD
ENDBRANCH 115 116
ENDBRANCH  95 115
ENDBRANCH  90  91
ENDBRANCH  89  90
ENDBRANCH  83  89
BRANCH  85 118
HETATM  118  O           1     -18.544   0.203  58.430  0.00  0.00    -0.352 OA
BRANCH 118 119
HETATM  119  C           1     -17.154   0.106  58.272  0.00  0.00     0.135 C 
HETATM  120  C           1     -16.771  -0.176  56.808  0.00  0.00     0.034 C 
HETATM  121  C           1     -16.390   1.064  55.970  0.00  0.00     0.012 C 
HETATM  122  C           1     -17.081   2.362  56.435  0.00  0.00    -0.032 C 
HETATM  123  C           1     -18.615   2.090  56.273  0.00  0.00     0.016 C 
HETATM  124  C           1     -16.619   2.637  57.898  0.00  0.00     0.007 C 
HETATM  125  C           1     -16.827   3.615  55.532  0.00  0.00     0.025 C 
HETATM  126  C           1     -16.495   1.387  58.849  0.00  0.00     0.008 C 
HETATM  127  C           1     -15.389   3.575  58.005  0.00  0.00     0.007 C 
HETATM  128  C           1     -17.185   1.764  60.196  0.00  0.00     0.020 C 
HETATM  129  C           1     -15.261   4.746  57.010  0.00  0.00     0.011 C 
HETATM  130  C           1     -15.450   4.337  55.521  0.00  0.00    -0.026 C 
HETATM  131  C           1     -14.267   3.398  55.165  0.00  0.00     0.016 C 
HETATM  132  C           1     -15.463   5.573  54.482  0.00  0.00     0.002 C 
HETATM  133  C           1     -14.489   6.659  55.016  0.00  0.00     0.019 C 
HETATM  134  C           1     -14.891   5.152  53.093  0.00  0.00     0.046 C 
HETATM  135  C           1     -16.884   6.187  54.206  0.00  0.00     0.091 C 
HETATM  136  C           1     -15.288   5.999  51.878  0.00  0.00     0.130 C 
HETATM  137  C           1     -16.732   6.526  51.920  0.00  0.00     0.014 C 
HETATM  138  C           1     -17.430   6.492  50.557  0.00  0.00     0.015 C 
HETATM  139  C           1     -16.853   7.865  52.645  0.00  0.00     0.181 C 
HETATM  140  C           1     -17.537   5.676  52.898  0.00  0.00     0.039 C 
HETATM  141  C           1     -18.744   5.683  50.625  0.00  0.00     0.010 C 
HETATM  142  C           1     -19.819   6.533  51.479  0.00  0.00    -0.047 C 
HETATM  143  C           1     -20.810   6.223  50.246  0.00  0.00     0.015 C 
HETATM  144  C           1     -21.175   6.248  52.342  0.00  0.00     0.015 C 
HETATM  145  C           1     -19.077   5.876  52.761  0.00  0.00     0.017 C 
HETATM  146  O           1     -16.793   7.583  54.018  0.00  0.00    -0.374 OA
HETATM  147  C           1     -17.791   5.906  55.369  0.00  0.00     0.008 C 
HETATM  148  C           1     -17.811   4.699  55.936  0.00  0.00    -0.021 C 
BRANCH 126 149
HETATM  149  C           1     -15.061   1.003  59.302  0.00  0.00     0.176 C 
BRANCH 149 150
HETATM  150  O           1     -15.014   0.494  60.617  0.00  0.00    -0.400 OA
HETATM  151  H           1     -15.886   0.170  60.861  0.00  0.00     0.209 HD
ENDBRANCH 149 150
ENDBRANCH 126 149
BRANCH 136 152
HETATM  152  O           1     -14.371   7.047  51.679  0.00  0.00    -0.395 OA
HETATM  153  H           1     -14.328   7.264  50.745  0.00  0.00     0.210 HD
ENDBRANCH 136 152
ENDBRANCH 118 119
ENDBRANCH  85 118
BRANCH  86 154
HETATM  154  O           1     -20.103  -0.453  60.789  0.00  0.00    -0.388 OA
HETATM  155  H           1     -21.005  -0.748  60.643  0.00  0.00     0.210 HD
ENDBRANCH  86 154
ENDBRANCH  80  81
ENDBRANCH   3  80
TORSDOF 42
ENDMDL
MODEL 8
REMARK VINA RESULT:      -8.2      7.623     16.370
REMARK WARNING: 32 MAX_TORS EXCEEDED!!!
REMARK  42 active torsions:
REMARK  status: ('A' for Active; 'I' for Inactive)
REMARK    1  A    between atoms: C_13  and  O_31 
REMARK    2  A    between atoms: C_14  and  O_32 
REMARK    3  A    between atoms: C_14  and  C_16 
REMARK    4  A    between atoms: C_15  and  O_31 
REMARK    5  A    between atoms: C_17  and  O_30 
REMARK    6  A    between atoms: C_18  and  O_29 
REMARK    7  A    between atoms: C_19  and  O_27 
REMARK    8  A    between atoms: C_20  and  O_27 
REMARK    9  A    between atoms: C_20  and  C_22 
REMARK   10  A    between atoms: C_21  and  O_26 
REMARK   11  A    between atoms: O_24  and  C_46 
REMARK   12  A    between atoms: O_25  and  C_65 
REMARK   13  A    between atoms: O_25  and  C_71 
REMARK   14  A    between atoms: O_35  and  C_155 
REMARK   15  A    between atoms: O_36  and  C_154 
REMARK   16  A    between atoms: O_37  and  C_152 
REMARK   17  A    between atoms: O_50  and  C_72 
REMARK   18  A    between atoms: O_51  and  C_73 
REMARK   19  A    between atoms: O_51  and  Pt_84 
REMARK   20  A    between atoms: O_52  and  C_69 
REMARK   21  A    between atoms: C_60  and  C_69 
REMARK   22  A    between atoms: Pt_84  and  O_144 
REMARK   23  A    between atoms: C_86  and  O_133 
REMARK   24  A    between atoms: C_88  and  O_134 
REMARK   25  A    between atoms: C_89  and  O_135 
REMARK   26  A    between atoms: C_90  and  O_138 
REMARK   27  A    between atoms: C_91  and  O_137 
REMARK   28  A    between atoms: C_91  and  C_93 
REMARK   29  A    between atoms: C_92  and  O_138 
REMARK   30  A    between atoms: C_94  and  O_139 
REMARK   31  A    between atoms: C_95  and  O_140 
REMARK   32  A    between atoms: C_96  and  O_142 
REMARK   33  A    between atoms: C_97  and  O_142 
REMARK   34  A    between atoms: C_97  and  C_99 
REMARK   35  A    between atoms: C_98  and  O_143 
REMARK   36  A    between atoms: C_100  and  O_144 
REMARK   37  A    between atoms: C_101  and  O_145 
REMARK   38  A    between atoms: C_102  and  O_148 
REMARK   39  A    between atoms: C_104  and  O_147 
REMARK   40  A    between atoms: C_104  and  C_113 
REMARK   41  A    between atoms: C_108  and  O_148 
REMARK   42  A    between atoms: C_124  and  O_149 
ROOT
HETATM    1  Cl          1     -16.533  -1.597  50.259  0.00  0.00     0.098 C 
HETATM    2  Cl          1     -17.321  -3.087  53.526  0.00  0.00     0.098 C 
HETATM    3  Pt          1     -18.113  -2.749  51.418  0.00  0.00     0.090 P 
ENDROOT
BRANCH   3   4
HETATM    4  O           1     -18.347  -4.521  50.702  0.00  0.00    -0.335 OA
BRANCH   4   5
HETATM    5  C           1     -17.868  -4.881  49.428  0.00  0.00     0.193 C 
HETATM    6  C           1     -18.673  -4.079  48.397  0.00  0.00     0.181 C 
HETATM    7  C           1     -19.928  -4.818  47.927  0.00  0.00     0.180 C 
HETATM    8  O           1     -20.447  -5.601  48.962  0.00  0.00    -0.348 OA
HETATM    9  C           1     -19.598  -6.684  49.305  0.00  0.00     0.292 C 
HETATM   10  C           1     -18.133  -6.347  49.086  0.00  0.00     0.205 C 
BRANCH   6  11
HETATM   11  O           1     -17.873  -3.813  47.268  0.00  0.00    -0.390 OA
HETATM   12  H           1     -18.044  -2.914  46.972  0.00  0.00     0.210 HD
ENDBRANCH   6  11
BRANCH   7  13
HETATM   13  C           1     -20.990  -3.836  47.447  0.00  0.00     0.205 C 
BRANCH  13  14
HETATM   14  O           1     -20.363  -2.589  47.271  0.00  0.00    -0.356 OA
BRANCH  14  15
HETATM   15  C           1     -21.232  -1.577  46.806  0.00  0.00     0.291 C 
HETATM   16  C           1     -20.710  -1.035  45.499  0.00  0.00     0.204 C 
HETATM   17  C           1     -21.479   0.203  45.079  0.00  0.00     0.183 C 
HETATM   18  C           1     -21.504   1.223  46.211  0.00  0.00     0.187 C 
HETATM   19  C           1     -21.917   0.547  47.527  0.00  0.00     0.180 C 
HETATM   20  O           1     -21.119  -0.575  47.790  0.00  0.00    -0.348 OA
BRANCH  16  21
HETATM   21  O           1     -20.844  -1.994  44.479  0.00  0.00    -0.388 OA
HETATM   22  H           1     -20.001  -2.051  44.019  0.00  0.00     0.210 HD
ENDBRANCH  16  21
BRANCH  17  23
HETATM   23  O           1     -20.824   0.689  43.928  0.00  0.00    -0.390 OA
HETATM   24  H           1     -21.192   1.525  43.635  0.00  0.00     0.210 HD
ENDBRANCH  17  23
BRANCH  18  25
HETATM   25  O           1     -22.412   2.276  45.998  0.00  0.00    -0.348 OA
BRANCH  25  26
HETATM   26  C           1     -22.775   2.586  44.672  0.00  0.00     0.292 C 
HETATM   27  O           1     -22.357   3.905  44.391  0.00  0.00    -0.351 OA
HETATM   28  C           1     -23.290   4.876  44.769  0.00  0.00     0.152 C 
HETATM   29  C           1     -22.623   6.249  44.694  0.00  0.00     0.042 C 
HETATM   30  C           1     -24.517   4.796  43.866  0.00  0.00     0.178 C 
HETATM   31  C           1     -24.790   3.362  43.443  0.00  0.00     0.183 C 
HETATM   32  C           1     -24.273   2.410  44.500  0.00  0.00     0.204 C 
BRANCH  30  33
HETATM   33  O           1     -25.637   5.274  44.571  0.00  0.00    -0.390 OA
HETATM   34  H           1     -25.511   6.190  44.827  0.00  0.00     0.210 HD
ENDBRANCH  30  33
BRANCH  31  35
HETATM   35  O           1     -26.172   3.156  43.277  0.00  0.00    -0.390 OA
HETATM   36  H           1     -26.465   3.630  42.494  0.00  0.00     0.210 HD
ENDBRANCH  31  35
BRANCH  32  37
HETATM   37  O           1     -24.571   1.097  44.089  0.00  0.00    -0.388 OA
HETATM   38  H           1     -23.752   0.677  43.814  0.00  0.00     0.210 HD
ENDBRANCH  32  37
ENDBRANCH  25  26
ENDBRANCH  18  25
BRANCH  19  39
HETATM   39  C           1     -21.783   1.458  48.744  0.00  0.00     0.198 C 
BRANCH  39  40
HETATM   40  O           1     -22.925   2.276  48.905  0.00  0.00    -0.398 OA
HETATM   41  H           1     -23.712   1.767  48.694  0.00  0.00     0.209 HD
ENDBRANCH  39  40
ENDBRANCH  19  39
ENDBRANCH  14  15
ENDBRANCH  13  14
ENDBRANCH   7  13
BRANCH   9  42
HETATM   42  O           1     -20.009  -7.775  48.508  0.00  0.00    -0.352 OA
BRANCH  42  43
HETATM   43  C           1     -20.957  -8.658  49.055  0.00  0.00     0.135 C 
HETATM   44  C           1     -20.603  -9.300  50.420  0.00  0.00     0.008 C 
HETATM   45  C           1     -21.882 -10.054  50.952  0.00  0.00     0.007 C 
HETATM   46  C           1     -19.394 -10.270  50.368  0.00  0.00     0.020 C 
HETATM   47  C           1     -22.636 -10.976  49.931  0.00  0.00    -0.032 C 
HETATM   48  C           1     -22.859  -9.118  51.707  0.00  0.00     0.007 C 
HETATM   49  C           1     -23.993 -11.471  50.535  0.00  0.00     0.025 C 
HETATM   50  C           1     -22.798 -10.307  48.548  0.00  0.00     0.012 C 
HETATM   51  C           1     -21.820 -12.284  49.684  0.00  0.00     0.016 C 
HETATM   52  C           1     -24.991 -10.534  51.283  0.00  0.00    -0.026 C 
HETATM   53  C           1     -24.817 -12.407  49.691  0.00  0.00    -0.021 C 
HETATM   54  C           1     -26.225 -11.358  51.936  0.00  0.00     0.002 C 
HETATM   55  C           1     -24.090  -9.814  52.314  0.00  0.00     0.011 C 
HETATM   56  C           1     -25.531  -9.431  50.335  0.00  0.00     0.016 C 
HETATM   57  C           1     -26.069 -12.910  51.760  0.00  0.00     0.091 C 
HETATM   58  C           1     -26.417 -11.093  53.454  0.00  0.00     0.046 C 
HETATM   59  C           1     -27.584 -10.947  51.288  0.00  0.00     0.019 C 
HETATM   60  O           1     -25.008 -13.344  52.585  0.00  0.00    -0.374 OA
HETATM   61  C           1     -27.245 -13.782  52.253  0.00  0.00     0.039 C 
HETATM   62  C           1     -25.790 -13.108  50.285  0.00  0.00     0.008 C 
HETATM   63  C           1     -25.532 -13.837  53.796  0.00  0.00     0.181 C 
HETATM   64  C           1     -27.033 -13.562  53.751  0.00  0.00     0.014 C 
HETATM   65  C           1     -27.335 -12.106  54.144  0.00  0.00     0.130 C 
HETATM   66  C           1     -27.914 -14.558  54.505  0.00  0.00     0.015 C 
HETATM   67  C           1     -28.425 -15.675  53.573  0.00  0.00     0.010 C 
HETATM   68  C           1     -27.135 -16.468  52.979  0.00  0.00    -0.047 C 
HETATM   69  C           1     -27.175 -15.297  51.866  0.00  0.00     0.017 C 
HETATM   70  C           1     -26.897 -17.467  51.706  0.00  0.00     0.015 C 
HETATM   71  C           1     -27.866 -17.766  53.584  0.00  0.00     0.015 C 
HETATM   72  C           1     -21.526  -9.629  48.022  0.00  0.00     0.034 C 
BRANCH  44  73
HETATM   73  C           1     -20.141  -8.167  51.370  0.00  0.00     0.176 C 
BRANCH  73  74
HETATM   74  O           1     -18.981  -8.541  52.088  0.00  0.00    -0.400 OA
HETATM   75  H           1     -18.599  -7.760  52.496  0.00  0.00     0.209 HD
ENDBRANCH  73  74
ENDBRANCH  44  73
BRANCH  65  76
HETATM   76  O           1     -27.193 -11.962  55.540  0.00  0.00    -0.395 OA
HETATM   77  H           1     -26.304 -12.216  55.798  0.00  0.00     0.210 HD
ENDBRANCH  65  76
ENDBRANCH  42  43
ENDBRANCH   9  42
BRANCH  10  78
HETATM   78  O           1     -17.301  -7.211  49.824  0.00  0.00    -0.388 OA
HETATM   79  H           1     -17.173  -6.886  50.716  0.00  0.00     0.210 HD
ENDBRANCH  10  78
ENDBRANCH   4   5
ENDBRANCH   3   4
BRANCH   3  80
HETATM   80  O           1     -19.785  -1.809  51.592  0.00  0.00    -0.335 OA
BRANCH  80  81
HETATM   81  C           1     -20.061  -0.875  52.609  0.00  0.00     0.193 C 
HETATM   82  C           1     -21.333  -1.155  53.399  0.00  0.00     0.181 C 
HETATM   83  C           1     -21.482  -0.113  54.509  0.00  0.00     0.180 C 
HETATM   84  O           1     -21.532   1.170  53.951  0.00  0.00    -0.348 OA
HETATM   85  C           1     -20.323   1.537  53.318  0.00  0.00     0.292 C 
HETATM   86  C           1     -20.024   0.583  52.177  0.00  0.00     0.205 C 
BRANCH  82  87
HETATM   87  O           1     -21.271  -2.450  53.950  0.00  0.00    -0.390 OA
HETATM   88  H           1     -21.573  -2.437  54.863  0.00  0.00     0.210 HD
ENDBRANCH  82  87
BRANCH  83  89
HETATM   89  C           1     -22.755  -0.328  55.323  0.00  0.00     0.205 C 
BRANCH  89  90
HETATM   90  O           1     -23.825  -0.492  54.425  0.00  0.00    -0.356 OA
BRANCH  90  91
HETATM   91  C           1     -24.793  -1.427  54.855  0.00  0.00     0.291 C 
HETATM   92  C           1     -25.027  -1.222  56.333  0.00  0.00     0.204 C 
HETATM   93  C           1     -25.932  -2.298  56.906  0.00  0.00     0.183 C 
HETATM   94  C           1     -25.809  -3.599  56.127  0.00  0.00     0.187 C 
HETATM   95  C           1     -24.444  -3.721  55.450  0.00  0.00     0.180 C 
HETATM   96  O           1     -24.180  -2.669  54.561  0.00  0.00    -0.348 OA
BRANCH  92  97
HETATM   97  O           1     -25.627   0.035  56.559  0.00  0.00    -0.388 OA
HETATM   98  H           1     -26.561  -0.019  56.339  0.00  0.00     0.210 HD
ENDBRANCH  92  97
BRANCH  93  99
HETATM   99  O           1     -27.263  -1.841  56.811  0.00  0.00    -0.390 OA
HETATM  100  H           1     -27.581  -1.504  57.649  0.00  0.00     0.210 HD
ENDBRANCH  93  99
BRANCH  94 101
HETATM  101  O           1     -25.981  -4.739  56.927  0.00  0.00    -0.348 OA
BRANCH 101 102
HETATM  102  C           1     -27.019  -5.627  56.574  0.00  0.00     0.292 C 
HETATM  103  C           1     -27.065  -6.728  57.611  0.00  0.00     0.204 C 
HETATM  104  C           1     -28.073  -7.776  57.194  0.00  0.00     0.183 C 
HETATM  105  C           1     -27.708  -8.272  55.811  0.00  0.00     0.178 C 
HETATM  106  C           1     -27.635  -7.093  54.849  0.00  0.00     0.152 C 
HETATM  107  C           1     -27.216  -7.528  53.445  0.00  0.00     0.042 C 
HETATM  108  O           1     -26.701  -6.150  55.306  0.00  0.00    -0.351 OA
BRANCH 103 109
HETATM  109  O           1     -27.456  -6.198  58.854  0.00  0.00    -0.388 OA
HETATM  110  H           1     -26.915  -5.427  59.041  0.00  0.00     0.210 HD
ENDBRANCH 103 109
BRANCH 104 111
HETATM  111  O           1     -28.042  -8.844  58.105  0.00  0.00    -0.390 OA
HETATM  112  H           1     -28.883  -8.878  58.567  0.00  0.00     0.210 HD
ENDBRANCH 104 111
BRANCH 105 113
HETATM  113  O           1     -28.696  -9.189  55.407  0.00  0.00    -0.390 OA
HETATM  114  H           1     -28.718  -9.260  54.451  0.00  0.00     0.210 HD
ENDBRANCH 105 113
ENDBRANCH 101 102
ENDBRANCH  94 101
BRANCH  95 115
HETATM  115  C           1     -23.277  -3.944  56.407  0.00  0.00     0.198 C 
BRANCH 115 116
HETATM  116  O           1     -23.244  -5.298  56.822  0.00  0.00    -0.398 OA
HETATM  117  H           1     -24.079  -5.729  56.616  0.00  0.00     0.209 HD
ENDBRANCH 115 116
ENDBRANCH  95 115
ENDBRANCH  90  91
ENDBRANCH  89  90
ENDBRANCH  83  89
BRANCH  85 118
HETATM  118  O           1     -20.608   2.800  52.749  0.00  0.00    -0.352 OA
BRANCH 118 119
HETATM  119  C           1     -20.219   3.923  53.494  0.00  0.00     0.135 C 
HETATM  120  C           1     -18.791   4.371  53.135  0.00  0.00     0.034 C 
HETATM  121  C           1     -18.692   5.509  52.095  0.00  0.00     0.012 C 
HETATM  122  C           1     -19.870   5.542  51.101  0.00  0.00    -0.032 C 
HETATM  123  C           1     -19.818   4.166  50.356  0.00  0.00     0.016 C 
HETATM  124  C           1     -21.169   5.787  51.927  0.00  0.00     0.007 C 
HETATM  125  C           1     -19.743   6.595  49.950  0.00  0.00     0.025 C 
HETATM  126  C           1     -21.282   5.038  53.309  0.00  0.00     0.008 C 
HETATM  127  C           1     -21.574   7.279  52.039  0.00  0.00     0.007 C 
HETATM  128  C           1     -22.709   4.410  53.377  0.00  0.00     0.020 C 
HETATM  129  C           1     -21.346   8.202  50.825  0.00  0.00     0.011 C 
HETATM  130  C           1     -19.914   8.116  50.223  0.00  0.00    -0.026 C 
HETATM  131  C           1     -18.944   8.658  51.307  0.00  0.00     0.016 C 
HETATM  132  C           1     -19.704   8.966  48.867  0.00  0.00     0.002 C 
HETATM  133  C           1     -20.582  10.245  48.960  0.00  0.00     0.019 C 
HETATM  134  C           1     -18.237   9.481  48.741  0.00  0.00     0.046 C 
HETATM  135  C           1     -20.009   8.177  47.541  0.00  0.00     0.091 C 
HETATM  136  C           1     -17.731   9.841  47.340  0.00  0.00     0.130 C 
HETATM  137  C           1     -18.258   8.926  46.222  0.00  0.00     0.014 C 
HETATM  138  C           1     -17.206   8.596  45.160  0.00  0.00     0.015 C 
HETATM  139  C           1     -19.592   9.400  45.648  0.00  0.00     0.181 C 
HETATM  140  C           1     -18.742   7.620  46.846  0.00  0.00     0.039 C 
HETATM  141  C           1     -17.027   7.070  45.007  0.00  0.00     0.010 C 
HETATM  142  C           1     -18.350   6.474  44.298  0.00  0.00    -0.047 C 
HETATM  143  C           1     -17.302   5.731  43.324  0.00  0.00     0.015 C 
HETATM  144  C           1     -19.119   5.038  44.188  0.00  0.00     0.015 C 
HETATM  145  C           1     -18.962   6.485  45.799  0.00  0.00     0.017 C 
HETATM  146  O           1     -20.579   9.034  46.575  0.00  0.00    -0.374 OA
HETATM  147  C           1     -20.966   7.056  47.828  0.00  0.00     0.008 C 
HETATM  148  C           1     -20.802   6.286  48.904  0.00  0.00    -0.021 C 
BRANCH 126 149
HETATM  149  C           1     -21.245   5.925  54.581  0.00  0.00     0.176 C 
BRANCH 149 150
HETATM  150  O           1     -22.486   5.985  55.250  0.00  0.00    -0.400 OA
HETATM  151  H           1     -22.482   5.360  55.979  0.00  0.00     0.209 HD
ENDBRANCH 149 150
ENDBRANCH 126 149
BRANCH 136 152
HETATM  152  O           1     -17.985  11.194  47.050  0.00  0.00    -0.395 OA
HETATM  153  H           1     -17.529  11.751  47.686  0.00  0.00     0.210 HD
ENDBRANCH 136 152
ENDBRANCH 118 119
ENDBRANCH  85 118
BRANCH  86 154
HETATM  154  O           1     -18.749   0.862  51.647  0.00  0.00    -0.388 OA
HETATM  155  H           1     -18.487   1.751  51.901  0.00  0.00     0.210 HD
ENDBRANCH  86 154
ENDBRANCH  80  81
ENDBRANCH   3  80
TORSDOF 42
ENDMDL
MODEL 9
REMARK VINA RESULT:      -8.1      4.981     11.929
REMARK WARNING: 32 MAX_TORS EXCEEDED!!!
REMARK  42 active torsions:
REMARK  status: ('A' for Active; 'I' for Inactive)
REMARK    1  A    between atoms: C_13  and  O_31 
REMARK    2  A    between atoms: C_14  and  O_32 
REMARK    3  A    between atoms: C_14  and  C_16 
REMARK    4  A    between atoms: C_15  and  O_31 
REMARK    5  A    between atoms: C_17  and  O_30 
REMARK    6  A    between atoms: C_18  and  O_29 
REMARK    7  A    between atoms: C_19  and  O_27 
REMARK    8  A    between atoms: C_20  and  O_27 
REMARK    9  A    between atoms: C_20  and  C_22 
REMARK   10  A    between atoms: C_21  and  O_26 
REMARK   11  A    between atoms: O_24  and  C_46 
REMARK   12  A    between atoms: O_25  and  C_65 
REMARK   13  A    between atoms: O_25  and  C_71 
REMARK   14  A    between atoms: O_35  and  C_155 
REMARK   15  A    between atoms: O_36  and  C_154 
REMARK   16  A    between atoms: O_37  and  C_152 
REMARK   17  A    between atoms: O_50  and  C_72 
REMARK   18  A    between atoms: O_51  and  C_73 
REMARK   19  A    between atoms: O_51  and  Pt_84 
REMARK   20  A    between atoms: O_52  and  C_69 
REMARK   21  A    between atoms: C_60  and  C_69 
REMARK   22  A    between atoms: Pt_84  and  O_144 
REMARK   23  A    between atoms: C_86  and  O_133 
REMARK   24  A    between atoms: C_88  and  O_134 
REMARK   25  A    between atoms: C_89  and  O_135 
REMARK   26  A    between atoms: C_90  and  O_138 
REMARK   27  A    between atoms: C_91  and  O_137 
REMARK   28  A    between atoms: C_91  and  C_93 
REMARK   29  A    between atoms: C_92  and  O_138 
REMARK   30  A    between atoms: C_94  and  O_139 
REMARK   31  A    between atoms: C_95  and  O_140 
REMARK   32  A    between atoms: C_96  and  O_142 
REMARK   33  A    between atoms: C_97  and  O_142 
REMARK   34  A    between atoms: C_97  and  C_99 
REMARK   35  A    between atoms: C_98  and  O_143 
REMARK   36  A    between atoms: C_100  and  O_144 
REMARK   37  A    between atoms: C_101  and  O_145 
REMARK   38  A    between atoms: C_102  and  O_148 
REMARK   39  A    between atoms: C_104  and  O_147 
REMARK   40  A    between atoms: C_104  and  C_113 
REMARK   41  A    between atoms: C_108  and  O_148 
REMARK   42  A    between atoms: C_124  and  O_149 
ROOT
HETATM    1  Cl          1     -28.949 -13.584  60.511  0.00  0.00     0.098 C 
HETATM    2  Cl          1     -26.064 -15.624  61.521  0.00  0.00     0.098 C 
HETATM    3  Pt          1     -26.726 -13.912  60.175  0.00  0.00     0.090 P 
ENDROOT
BRANCH   3   4
HETATM    4  O           1     -25.700 -12.399  60.781  0.00  0.00    -0.335 OA
BRANCH   4   5
HETATM    5  C           1     -24.494 -12.552  61.491  0.00  0.00     0.193 C 
HETATM    6  C           1     -24.449 -11.446  62.553  0.00  0.00     0.181 C 
HETATM    7  C           1     -23.769 -10.171  62.046  0.00  0.00     0.180 C 
HETATM    8  O           1     -24.010 -10.004  60.679  0.00  0.00    -0.348 OA
HETATM    9  C           1     -23.372 -10.993  59.889  0.00  0.00     0.292 C 
HETATM   10  C           1     -23.259 -12.319  60.621  0.00  0.00     0.205 C 
BRANCH   6  11
HETATM   11  O           1     -23.740 -11.898  63.685  0.00  0.00    -0.390 OA
HETATM   12  H           1     -23.582 -12.842  63.594  0.00  0.00     0.210 HD
ENDBRANCH   6  11
BRANCH   7  13
HETATM   13  C           1     -24.270  -8.949  62.807  0.00  0.00     0.205 C 
BRANCH  13  14
HETATM   14  O           1     -24.439  -9.328  64.150  0.00  0.00    -0.356 OA
BRANCH  14  15
HETATM   15  C           1     -24.054  -8.332  65.075  0.00  0.00     0.291 C 
HETATM   16  C           1     -24.976  -7.147  64.942  0.00  0.00     0.204 C 
HETATM   17  C           1     -24.465  -5.969  65.749  0.00  0.00     0.183 C 
HETATM   18  C           1     -23.013  -5.671  65.396  0.00  0.00     0.187 C 
HETATM   19  C           1     -22.183  -6.964  65.428  0.00  0.00     0.180 C 
HETATM   20  O           1     -22.769  -7.959  64.635  0.00  0.00    -0.348 OA
BRANCH  16  21
HETATM   21  O           1     -26.263  -7.466  65.411  0.00  0.00    -0.388 OA
HETATM   22  H           1     -26.214  -7.545  66.369  0.00  0.00     0.210 HD
ENDBRANCH  16  21
BRANCH  17  23
HETATM   23  O           1     -25.326  -4.893  65.446  0.00  0.00    -0.390 OA
HETATM   24  H           1     -24.842  -4.075  65.316  0.00  0.00     0.210 HD
ENDBRANCH  17  23
BRANCH  18  25
HETATM   25  O           1     -22.392  -4.773  66.282  0.00  0.00    -0.348 OA
BRANCH  25  26
HETATM   26  C           1     -22.822  -3.431  66.282  0.00  0.00     0.292 C 
HETATM   27  O           1     -22.770  -2.945  64.958  0.00  0.00    -0.351 OA
HETATM   28  C           1     -21.515  -2.439  64.601  0.00  0.00     0.152 C 
HETATM   29  C           1     -21.490  -2.220  63.088  0.00  0.00     0.042 C 
HETATM   30  C           1     -21.242  -1.145  65.361  0.00  0.00     0.178 C 
HETATM   31  C           1     -21.867  -1.185  66.746  0.00  0.00     0.183 C 
HETATM   32  C           1     -21.956  -2.618  67.226  0.00  0.00     0.204 C 
BRANCH  30  33
HETATM   33  O           1     -19.851  -0.982  65.504  0.00  0.00    -0.390 OA
HETATM   34  H           1     -19.394  -1.259  64.708  0.00  0.00     0.210 HD
ENDBRANCH  30  33
BRANCH  31  35
HETATM   35  O           1     -21.088  -0.445  67.655  0.00  0.00    -0.390 OA
HETATM   36  H           1     -21.659   0.168  68.127  0.00  0.00     0.210 HD
ENDBRANCH  31  35
BRANCH  32  37
HETATM   37  O           1     -22.508  -2.612  68.521  0.00  0.00    -0.388 OA
HETATM   38  H           1     -22.105  -3.328  69.020  0.00  0.00     0.210 HD
ENDBRANCH  32  37
ENDBRANCH  25  26
ENDBRANCH  18  25
BRANCH  19  39
HETATM   39  C           1     -20.761  -6.784  64.902  0.00  0.00     0.198 C 
BRANCH  39  40
HETATM   40  O           1     -19.914  -6.225  65.886  0.00  0.00    -0.398 OA
HETATM   41  H           1     -19.402  -6.926  66.299  0.00  0.00     0.209 HD
ENDBRANCH  39  40
ENDBRANCH  19  39
ENDBRANCH  14  15
ENDBRANCH  13  14
ENDBRANCH   7  13
BRANCH   9  42
HETATM   42  O           1     -22.104 -10.470  59.552  0.00  0.00    -0.352 OA
BRANCH  42  43
HETATM   43  C           1     -21.847 -10.214  58.192  0.00  0.00     0.135 C 
HETATM   44  C           1     -20.373  -9.939  57.803  0.00  0.00     0.008 C 
HETATM   45  C           1     -20.281  -9.914  56.228  0.00  0.00     0.007 C 
HETATM   46  C           1     -19.797  -8.625  58.393  0.00  0.00     0.020 C 
HETATM   47  C           1     -21.363  -9.070  55.470  0.00  0.00    -0.032 C 
HETATM   48  C           1     -20.123 -11.327  55.615  0.00  0.00     0.007 C 
HETATM   49  C           1     -21.276  -9.323  53.927  0.00  0.00     0.025 C 
HETATM   50  C           1     -22.783  -9.292  56.038  0.00  0.00     0.012 C 
HETATM   51  C           1     -21.068  -7.545  55.631  0.00  0.00     0.016 C 
HETATM   52  C           1     -21.133 -10.743  53.298  0.00  0.00    -0.026 C 
HETATM   53  C           1     -22.224  -8.548  53.051  0.00  0.00    -0.021 C 
HETATM   54  C           1     -20.902 -10.677  51.694  0.00  0.00     0.002 C 
HETATM   55  C           1     -19.952 -11.359  54.085  0.00  0.00     0.011 C 
HETATM   56  C           1     -22.372 -11.618  53.621  0.00  0.00     0.016 C 
HETATM   57  C           1     -20.765  -9.204  51.169  0.00  0.00     0.091 C 
HETATM   58  C           1     -19.642 -11.446  51.213  0.00  0.00     0.046 C 
HETATM   59  C           1     -22.088 -11.341  50.925  0.00  0.00     0.019 C 
HETATM   60  O           1     -19.533  -8.685  51.625  0.00  0.00    -0.374 OA
HETATM   61  C           1     -20.649  -9.025  49.639  0.00  0.00     0.039 C 
HETATM   62  C           1     -21.962  -8.474  51.740  0.00  0.00     0.008 C 
HETATM   63  C           1     -18.567  -8.818  50.608  0.00  0.00     0.181 C 
HETATM   64  C           1     -19.241  -9.600  49.484  0.00  0.00     0.014 C 
HETATM   65  C           1     -19.224 -11.109  49.779  0.00  0.00     0.130 C 
HETATM   66  C           1     -18.754  -9.283  48.070  0.00  0.00     0.015 C 
HETATM   67  C           1     -19.631  -8.205  47.400  0.00  0.00     0.010 C 
HETATM   68  C           1     -19.541  -6.851  48.296  0.00  0.00    -0.047 C 
HETATM   69  C           1     -20.743  -7.551  49.118  0.00  0.00     0.017 C 
HETATM   70  C           1     -20.451  -5.497  48.410  0.00  0.00     0.015 C 
HETATM   71  C           1     -19.085  -6.169  46.914  0.00  0.00     0.015 C 
HETATM   72  C           1     -22.861  -9.255  57.570  0.00  0.00     0.034 C 
BRANCH  44  73
HETATM   73  C           1     -19.501 -11.053  58.433  0.00  0.00     0.176 C 
BRANCH  73  74
HETATM   74  O           1     -19.128 -10.726  59.758  0.00  0.00    -0.400 OA
HETATM   75  H           1     -18.228 -11.023  59.913  0.00  0.00     0.209 HD
ENDBRANCH  73  74
ENDBRANCH  44  73
BRANCH  65  76
HETATM   76  O           1     -17.924 -11.611  49.560  0.00  0.00    -0.395 OA
HETATM   77  H           1     -17.714 -12.257  50.239  0.00  0.00     0.210 HD
ENDBRANCH  65  76
ENDBRANCH  42  43
ENDBRANCH   9  42
BRANCH  10  78
HETATM   78  O           1     -23.053 -13.378  59.717  0.00  0.00    -0.388 OA
HETATM   79  H           1     -23.520 -13.225  58.895  0.00  0.00     0.210 HD
ENDBRANCH  10  78
ENDBRANCH   4   5
ENDBRANCH   3   4
BRANCH   3  80
HETATM   80  O           1     -26.281 -14.414  58.369  0.00  0.00    -0.335 OA
BRANCH  80  81
HETATM   81  C           1     -27.024 -14.024  57.239  0.00  0.00     0.193 C 
HETATM   82  C           1     -27.026 -15.036  56.100  0.00  0.00     0.181 C 
HETATM   83  C           1     -27.916 -14.526  54.966  0.00  0.00     0.180 C 
HETATM   84  O           1     -27.443 -13.289  54.512  0.00  0.00    -0.348 OA
HETATM   85  C           1     -27.544 -12.274  55.490  0.00  0.00     0.292 C 
HETATM   86  C           1     -26.708 -12.635  56.702  0.00  0.00     0.205 C 
BRANCH  82  87
HETATM   87  O           1     -27.498 -16.276  56.573  0.00  0.00    -0.390 OA
HETATM   88  H           1     -26.830 -16.698  57.121  0.00  0.00     0.210 HD
ENDBRANCH  82  87
BRANCH  83  89
HETATM   89  C           1     -27.938 -15.490  53.784  0.00  0.00     0.205 C 
BRANCH  89  90
HETATM   90  O           1     -26.609 -15.820  53.463  0.00  0.00    -0.356 OA
BRANCH  90  91
HETATM   91  C           1     -26.226 -15.444  52.156  0.00  0.00     0.291 C 
HETATM   92  C           1     -25.794 -16.686  51.413  0.00  0.00     0.204 C 
HETATM   93  C           1     -25.210 -16.344  50.054  0.00  0.00     0.183 C 
HETATM   94  C           1     -24.581 -14.958  50.054  0.00  0.00     0.187 C 
HETATM   95  C           1     -24.119 -14.551  51.452  0.00  0.00     0.180 C 
HETATM   96  O           1     -25.161 -14.541  52.390  0.00  0.00    -0.348 OA
BRANCH  92  97
HETATM   97  O           1     -26.895 -17.546  51.224  0.00  0.00    -0.388 OA
HETATM   98  H           1     -26.783 -18.325  51.776  0.00  0.00     0.210 HD
ENDBRANCH  92  97
BRANCH  93  99
HETATM   99  O           1     -26.261 -16.361  49.114  0.00  0.00    -0.390 OA
HETATM  100  H           1     -27.114 -16.256  49.537  0.00  0.00     0.210 HD
ENDBRANCH  93  99
BRANCH  94 101
HETATM  101  O           1     -23.470 -14.858  49.201  0.00  0.00    -0.348 OA
BRANCH 101 102
HETATM  102  C           1     -23.524 -13.886  48.180  0.00  0.00     0.292 C 
HETATM  103  C           1     -22.109 -13.428  47.897  0.00  0.00     0.204 C 
HETATM  104  C           1     -22.135 -12.286  46.905  0.00  0.00     0.183 C 
HETATM  105  C           1     -23.020 -11.188  47.458  0.00  0.00     0.178 C 
HETATM  106  C           1     -24.402 -11.752  47.761  0.00  0.00     0.152 C 
HETATM  107  C           1     -25.325 -10.698  48.374  0.00  0.00     0.042 C 
HETATM  108  O           1     -24.305 -12.819  48.666  0.00  0.00    -0.351 OA
BRANCH 103 109
HETATM  109  O           1     -21.366 -14.486  47.343  0.00  0.00    -0.388 OA
HETATM  110  H           1     -20.432 -14.301  47.467  0.00  0.00     0.210 HD
ENDBRANCH 103 109
BRANCH 104 111
HETATM  111  O           1     -20.831 -11.797  46.720  0.00  0.00    -0.390 OA
HETATM  112  H           1     -20.613 -11.852  45.786  0.00  0.00     0.210 HD
ENDBRANCH 104 111
BRANCH 105 113
HETATM  113  O           1     -23.094 -10.168  46.492  0.00  0.00    -0.390 OA
HETATM  114  H           1     -23.724  -9.497  46.760  0.00  0.00     0.210 HD
ENDBRANCH 105 113
ENDBRANCH 101 102
ENDBRANCH  94 101
BRANCH  95 115
HETATM  115  C           1     -22.911 -15.324  51.974  0.00  0.00     0.198 C 
BRANCH 115 116
HETATM  116  O           1     -21.716 -14.734  51.494  0.00  0.00    -0.398 OA
HETATM  117  H           1     -21.113 -14.564  52.224  0.00  0.00     0.209 HD
ENDBRANCH 115 116
ENDBRANCH  95 115
ENDBRANCH  90  91
ENDBRANCH  89  90
ENDBRANCH  83  89
BRANCH  85 118
HETATM  118  O           1     -26.938 -11.152  54.878  0.00  0.00    -0.352 OA
BRANCH 118 119
HETATM  119  C           1     -27.763 -10.362  54.065  0.00  0.00     0.135 C 
HETATM  120  C           1     -28.755  -9.533  54.902  0.00  0.00     0.034 C 
HETATM  121  C           1     -28.319  -8.083  55.204  0.00  0.00     0.012 C 
HETATM  122  C           1     -26.790  -7.895  55.263  0.00  0.00    -0.032 C 
HETATM  123  C           1     -26.307  -8.824  56.427  0.00  0.00     0.016 C 
HETATM  124  C           1     -26.223  -8.261  53.858  0.00  0.00     0.007 C 
HETATM  125  C           1     -26.308  -6.470  55.697  0.00  0.00     0.025 C 
HETATM  126  C           1     -26.870  -9.501  53.133  0.00  0.00     0.008 C 
HETATM  127  C           1     -26.063  -7.048  52.906  0.00  0.00     0.007 C 
HETATM  128  C           1     -25.700 -10.375  52.584  0.00  0.00     0.020 C 
HETATM  129  C           1     -25.619  -5.695  53.497  0.00  0.00     0.011 C 
HETATM  130  C           1     -26.435  -5.248  54.745  0.00  0.00    -0.026 C 
HETATM  131  C           1     -27.887  -4.997  54.257  0.00  0.00     0.016 C 
HETATM  132  C           1     -25.889  -3.908  55.460  0.00  0.00     0.002 C 
HETATM  133  C           1     -25.318  -2.973  54.357  0.00  0.00     0.019 C 
HETATM  134  C           1     -27.051  -3.104  56.122  0.00  0.00     0.046 C 
HETATM  135  C           1     -24.822  -4.153  56.589  0.00  0.00     0.091 C 
HETATM  136  C           1     -26.685  -2.127  57.244  0.00  0.00     0.130 C 
HETATM  137  C           1     -25.547  -2.610  58.158  0.00  0.00     0.014 C 
HETATM  138  C           1     -25.773  -2.276  59.636  0.00  0.00     0.015 C 
HETATM  139  C           1     -24.164  -2.224  57.639  0.00  0.00     0.181 C 
HETATM  140  C           1     -25.417  -4.124  58.019  0.00  0.00     0.039 C 
HETATM  141  C           1     -25.721  -3.549  60.509  0.00  0.00     0.010 C 
HETATM  142  C           1     -24.192  -4.067  60.559  0.00  0.00    -0.047 C 
HETATM  143  C           1     -24.434  -4.140  62.152  0.00  0.00     0.015 C 
HETATM  144  C           1     -23.398  -5.464  60.848  0.00  0.00     0.015 C 
HETATM  145  C           1     -24.555  -4.772  59.146  0.00  0.00     0.017 C 
HETATM  146  O           1     -23.864  -3.116  56.598  0.00  0.00    -0.374 OA
HETATM  147  C           1     -24.127  -5.462  56.354  0.00  0.00     0.008 C 
HETATM  148  C           1     -24.823  -6.545  56.007  0.00  0.00    -0.021 C 
BRANCH 126 149
HETATM  149  C           1     -27.694  -9.201  51.853  0.00  0.00     0.176 C 
BRANCH 149 150
HETATM  150  O           1     -28.592 -10.237  51.518  0.00  0.00    -0.400 OA
HETATM  151  H           1     -28.189 -10.799  50.851  0.00  0.00     0.209 HD
ENDBRANCH 149 150
ENDBRANCH 126 149
BRANCH 136 152
HETATM  152  O           1     -26.408  -0.849  56.723  0.00  0.00    -0.395 OA
HETATM  153  H           1     -25.513  -0.593  56.957  0.00  0.00     0.210 HD
ENDBRANCH 136 152
ENDBRANCH 118 119
ENDBRANCH  85 118
BRANCH  86 154
HETATM  154  O           1     -26.929 -11.697  57.729  0.00  0.00    -0.388 OA
HETATM  155  H           1     -26.358 -10.936  57.593  0.00  0.00     0.210 HD
ENDBRANCH  86 154
ENDBRANCH  80  81
ENDBRANCH   3  80
TORSDOF 42
ENDMDL
