MODEL 1
REMARK VINA RESULT:      -8.8      0.000      0.000
REMARK  20 active torsions:
REMARK  status: ('A' for Active; 'I' for Inactive)
REMARK    1  A    between atoms: C_13  and  O_60 
REMARK    2  A    between atoms: C_15  and  O_61 
REMARK    3  A    between atoms: C_16  and  O_62 
REMARK    4  A    between atoms: C_17  and  O_65 
REMARK    5  A    between atoms: C_18  and  O_64 
REMARK    6  A    between atoms: C_18  and  C_20 
REMARK    7  A    between atoms: C_19  and  O_65 
REMARK    8  A    between atoms: C_21  and  O_66 
REMARK    9  A    between atoms: C_22  and  O_67 
REMARK   10  A    between atoms: C_23  and  O_69 
REMARK   11  A    between atoms: C_24  and  O_69 
REMARK   12  A    between atoms: C_24  and  C_26 
REMARK   13  A    between atoms: C_25  and  O_70 
REMARK   14  A    between atoms: C_27  and  O_71 
REMARK   15  A    between atoms: C_28  and  O_72 
REMARK   16  A    between atoms: C_29  and  O_75 
REMARK   17  A    between atoms: C_31  and  O_74 
REMARK   18  A    between atoms: C_31  and  C_40 
REMARK   19  A    between atoms: C_35  and  O_75 
REMARK   20  A    between atoms: C_51  and  O_76 
ROOT
HETATM    1  C   UNN     0     -26.791  -4.143  59.937  0.00  0.00     0.180 C 
HETATM    2  C   UNN     0     -25.852  -5.013  59.106  0.00  0.00     0.180 C 
HETATM    3  C   UNN     0     -26.590  -2.653  59.736  0.00  0.00     0.183 C 
HETATM    4  C   UNN     0     -25.114  -2.349  59.866  0.00  0.00     0.204 C 
HETATM    5  C   UNN     0     -24.295  -3.194  58.917  0.00  0.00     0.292 C 
HETATM    6  O   UNN     0     -24.517  -4.575  59.115  0.00  0.00    -0.348 OA
ENDROOT
BRANCH   5   7
HETATM    7  O   UNN     0     -24.609  -2.868  57.583  0.00  0.00    -0.352 OA
BRANCH   7   8
HETATM    8  C   UNN     0     -23.729  -1.998  56.929  0.00  0.00     0.135 C 
HETATM    9  C   UNN     0     -22.281  -2.401  57.167  0.00  0.00     0.034 C 
HETATM   10  C   UNN     0     -21.380  -1.275  56.660  0.00  0.00     0.012 C 
HETATM   11  C   UNN     0     -21.468  -1.084  55.127  0.00  0.00    -0.032 C 
HETATM   12  C   UNN     0     -20.374  -2.061  54.571  0.00  0.00     0.016 C 
HETATM   13  C   UNN     0     -22.848  -1.510  54.525  0.00  0.00     0.007 C 
HETATM   14  C   UNN     0     -21.028   0.335  54.622  0.00  0.00     0.025 C 
HETATM   15  C   UNN     0     -24.073  -1.944  55.420  0.00  0.00     0.008 C 
HETATM   16  C   UNN     0     -23.166  -0.669  53.274  0.00  0.00     0.007 C 
HETATM   17  C   UNN     0     -24.516  -3.354  54.923  0.00  0.00     0.020 C 
HETATM   18  C   UNN     0     -23.251   0.845  53.514  0.00  0.00     0.011 C 
HETATM   19  C   UNN     0     -22.098   1.446  54.373  0.00  0.00    -0.026 C 
HETATM   20  C   UNN     0     -22.729   1.691  55.774  0.00  0.00     0.016 C 
HETATM   21  C   UNN     0     -21.435   2.793  53.765  0.00  0.00     0.002 C 
HETATM   22  C   UNN     0     -21.910   4.016  54.607  0.00  0.00     0.019 C 
HETATM   23  C   UNN     0     -21.862   3.161  52.313  0.00  0.00     0.046 C 
HETATM   24  C   UNN     0     -19.861   2.733  53.713  0.00  0.00     0.091 C 
HETATM   25  C   UNN     0     -21.028   4.268  51.646  0.00  0.00     0.130 C 
HETATM   26  C   UNN     0     -19.513   4.076  51.840  0.00  0.00     0.014 C 
HETATM   27  C   UNN     0     -18.650   5.098  51.072  0.00  0.00     0.015 C 
HETATM   28  C   UNN     0     -19.138   2.630  51.518  0.00  0.00     0.181 C 
HETATM   29  C   UNN     0     -19.214   4.079  53.351  0.00  0.00     0.039 C 
HETATM   30  C   UNN     0     -18.140   6.209  51.996  0.00  0.00     0.010 C 
HETATM   31  C   UNN     0     -17.228   5.668  53.122  0.00  0.00    -0.047 C 
HETATM   32  C   UNN     0     -17.252   6.674  54.294  0.00  0.00     0.015 C 
HETATM   33  C   UNN     0     -15.771   5.557  52.623  0.00  0.00     0.015 C 
HETATM   34  C   UNN     0     -17.709   4.275  53.603  0.00  0.00     0.017 C 
HETATM   35  O   UNN     0     -19.462   1.878  52.660  0.00  0.00    -0.374 OA
HETATM   36  C   UNN     0     -19.383   2.130  55.008  0.00  0.00     0.008 C 
HETATM   37  C   UNN     0     -19.902   0.964  55.410  0.00  0.00    -0.021 C 
BRANCH  15  38
HETATM   38  C   UNN     0     -25.325  -1.049  55.260  0.00  0.00     0.176 C 
BRANCH  38  39
HETATM   39  O   UNN     0     -25.704  -0.445  56.485  0.00  0.00    -0.400 OA
HETATM   40  H   UNN     0     -25.070  -0.684  57.166  0.00  0.00     0.209 HD
ENDBRANCH  38  39
ENDBRANCH  15  38
BRANCH  25  41
HETATM   41  O   UNN     0     -21.345   4.275  50.271  0.00  0.00    -0.395 OA
HETATM   42  H   UNN     0     -21.734   5.122  50.039  0.00  0.00     0.210 HD
ENDBRANCH  25  41
ENDBRANCH   7   8
ENDBRANCH   5   7
BRANCH   4  43
HETATM   43  O   UNN     0     -24.903  -0.988  59.582  0.00  0.00    -0.388 OA
HETATM   44  H   UNN     0     -24.253  -0.886  58.885  0.00  0.00     0.210 HD
ENDBRANCH   4  43
BRANCH   3  45
HETATM   45  O   UNN     0     -27.050  -2.263  58.462  0.00  0.00    -0.390 OA
HETATM   46  H   UNN     0     -27.276  -3.039  57.937  0.00  0.00     0.210 HD
ENDBRANCH   3  45
BRANCH   2  47
HETATM   47  C   UNN     0     -26.359  -5.338  57.700  0.00  0.00     0.205 C 
BRANCH  47  48
HETATM   48  O   UNN     0     -27.178  -6.482  57.768  0.00  0.00    -0.356 OA
BRANCH  48  49
HETATM   49  C   UNN     0     -27.809  -6.831  56.557  0.00  0.00     0.291 C 
HETATM   50  C   UNN     0     -26.882  -6.530  55.391  0.00  0.00     0.204 C 
HETATM   51  C   UNN     0     -25.977  -7.676  54.973  0.00  0.00     0.183 C 
HETATM   52  C   UNN     0     -26.761  -8.976  54.961  0.00  0.00     0.187 C 
HETATM   53  C   UNN     0     -27.405  -9.187  56.327  0.00  0.00     0.180 C 
HETATM   54  O   UNN     0     -28.301  -8.154  56.630  0.00  0.00    -0.348 OA
BRANCH  50  55
HETATM   55  O   UNN     0     -27.649  -6.116  54.281  0.00  0.00    -0.388 OA
HETATM   56  H   UNN     0     -28.366  -5.547  54.570  0.00  0.00     0.210 HD
ENDBRANCH  50  55
BRANCH  51  57
HETATM   57  O   UNN     0     -24.879  -7.787  55.845  0.00  0.00    -0.390 OA
HETATM   58  H   UNN     0     -25.178  -8.008  56.730  0.00  0.00     0.210 HD
ENDBRANCH  51  57
BRANCH  52  59
HETATM   59  O   UNN     0     -27.698  -8.861  53.923  0.00  0.00    -0.348 OA
BRANCH  59  60
HETATM   60  C   UNN     0     -27.213  -8.971  52.603  0.00  0.00     0.292 C 
HETATM   61  C   UNN     0     -28.421  -9.248  51.727  0.00  0.00     0.204 C 
HETATM   62  C   UNN     0     -27.966  -9.637  50.336  0.00  0.00     0.183 C 
HETATM   63  C   UNN     0     -26.995 -10.796  50.421  0.00  0.00     0.178 C 
HETATM   64  C   UNN     0     -25.851 -10.429  51.358  0.00  0.00     0.152 C 
HETATM   65  C   UNN     0     -24.870 -11.588  51.534  0.00  0.00     0.042 C 
HETATM   66  O   UNN     0     -26.353 -10.092  52.622  0.00  0.00    -0.351 OA
BRANCH  61  67
HETATM   67  O   UNN     0     -29.150 -10.292  52.334  0.00  0.00    -0.388 OA
HETATM   68  H   UNN     0     -28.579 -10.716  52.985  0.00  0.00     0.210 HD
ENDBRANCH  61  67
BRANCH  62  69
HETATM   69  O   UNN     0     -29.049  -9.996  49.514  0.00  0.00    -0.390 OA
HETATM   70  H   UNN     0     -29.153  -9.302  48.857  0.00  0.00     0.210 HD
ENDBRANCH  62  69
BRANCH  63  71
HETATM   71  O   UNN     0     -26.517 -11.059  49.125  0.00  0.00    -0.390 OA
HETATM   72  H   UNN     0     -27.163 -11.573  48.637  0.00  0.00     0.210 HD
ENDBRANCH  63  71
ENDBRANCH  59  60
ENDBRANCH  52  59
BRANCH  53  73
HETATM   73  C   UNN     0     -26.477  -9.505  57.500  0.00  0.00     0.198 C 
BRANCH  73  74
HETATM   74  O   UNN     0     -27.172  -9.363  58.723  0.00  0.00    -0.398 OA
HETATM   75  H   UNN     0     -27.934  -9.951  58.692  0.00  0.00     0.209 HD
ENDBRANCH  73  74
ENDBRANCH  53  73
ENDBRANCH  48  49
ENDBRANCH  47  48
ENDBRANCH   2  47
BRANCH   1  76
HETATM   76  O   UNN     0     -26.580  -4.426  61.303  0.00  0.00    -0.390 OA
HETATM   77  H   UNN     0     -27.247  -3.989  61.836  0.00  0.00     0.210 HD
ENDBRANCH   1  76
TORSDOF 20
ENDMDL
MODEL 2
REMARK VINA RESULT:      -8.6      6.472     14.383
REMARK  20 active torsions:
REMARK  status: ('A' for Active; 'I' for Inactive)
REMARK    1  A    between atoms: C_13  and  O_60 
REMARK    2  A    between atoms: C_15  and  O_61 
REMARK    3  A    between atoms: C_16  and  O_62 
REMARK    4  A    between atoms: C_17  and  O_65 
REMARK    5  A    between atoms: C_18  and  O_64 
REMARK    6  A    between atoms: C_18  and  C_20 
REMARK    7  A    between atoms: C_19  and  O_65 
REMARK    8  A    between atoms: C_21  and  O_66 
REMARK    9  A    between atoms: C_22  and  O_67 
REMARK   10  A    between atoms: C_23  and  O_69 
REMARK   11  A    between atoms: C_24  and  O_69 
REMARK   12  A    between atoms: C_24  and  C_26 
REMARK   13  A    between atoms: C_25  and  O_70 
REMARK   14  A    between atoms: C_27  and  O_71 
REMARK   15  A    between atoms: C_28  and  O_72 
REMARK   16  A    between atoms: C_29  and  O_75 
REMARK   17  A    between atoms: C_31  and  O_74 
REMARK   18  A    between atoms: C_31  and  C_40 
REMARK   19  A    between atoms: C_35  and  O_75 
REMARK   20  A    between atoms: C_51  and  O_76 
ROOT
HETATM    1  C   UNN     0     -26.234  -3.998  56.203  0.00  0.00     0.180 C 
HETATM    2  C   UNN     0     -25.427  -5.180  56.733  0.00  0.00     0.180 C 
HETATM    3  C   UNN     0     -27.140  -4.344  55.037  0.00  0.00     0.183 C 
HETATM    4  C   UNN     0     -26.330  -5.107  54.013  0.00  0.00     0.204 C 
HETATM    5  C   UNN     0     -25.666  -6.316  54.630  0.00  0.00     0.292 C 
HETATM    6  O   UNN     0     -24.843  -5.966  55.724  0.00  0.00    -0.348 OA
ENDROOT
BRANCH   5   7
HETATM    7  O   UNN     0     -26.641  -7.235  55.068  0.00  0.00    -0.352 OA
BRANCH   7   8
HETATM    8  C   UNN     0     -26.376  -8.588  54.828  0.00  0.00     0.135 C 
HETATM    9  C   UNN     0     -25.397  -9.144  55.852  0.00  0.00     0.034 C 
HETATM   10  C   UNN     0     -24.948 -10.529  55.382  0.00  0.00     0.012 C 
HETATM   11  C   UNN     0     -26.102 -11.559  55.371  0.00  0.00    -0.032 C 
HETATM   12  C   UNN     0     -26.073 -12.161  56.819  0.00  0.00     0.016 C 
HETATM   13  C   UNN     0     -27.510 -10.914  55.143  0.00  0.00     0.007 C 
HETATM   14  C   UNN     0     -25.867 -12.788  54.424  0.00  0.00     0.025 C 
HETATM   15  C   UNN     0     -27.704  -9.384  54.807  0.00  0.00     0.008 C 
HETATM   16  C   UNN     0     -28.441 -11.906  54.422  0.00  0.00     0.007 C 
HETATM   17  C   UNN     0     -28.687  -8.810  55.873  0.00  0.00     0.020 C 
HETATM   18  C   UNN     0     -27.952 -12.369  53.042  0.00  0.00     0.011 C 
HETATM   19  C   UNN     0     -26.452 -12.785  52.975  0.00  0.00    -0.026 C 
HETATM   20  C   UNN     0     -25.737 -11.591  52.277  0.00  0.00     0.016 C 
HETATM   21  C   UNN     0     -26.173 -14.187  52.212  0.00  0.00     0.002 C 
HETATM   22  C   UNN     0     -25.546 -13.887  50.817  0.00  0.00     0.019 C 
HETATM   23  C   UNN     0     -27.435 -15.033  51.872  0.00  0.00     0.046 C 
HETATM   24  C   UNN     0     -25.251 -15.162  53.037  0.00  0.00     0.091 C 
HETATM   25  C   UNN     0     -27.152 -16.472  51.407  0.00  0.00     0.130 C 
HETATM   26  C   UNN     0     -26.114 -17.192  52.286  0.00  0.00     0.014 C 
HETATM   27  C   UNN     0     -25.908 -18.677  51.922  0.00  0.00     0.015 C 
HETATM   28  C   UNN     0     -26.467 -16.992  53.759  0.00  0.00     0.181 C 
HETATM   29  C   UNN     0     -24.799 -16.392  52.237  0.00  0.00     0.039 C 
HETATM   30  C   UNN     0     -24.636 -18.881  51.093  0.00  0.00     0.010 C 
HETATM   31  C   UNN     0     -23.359 -18.467  51.861  0.00  0.00    -0.047 C 
HETATM   32  C   UNN     0     -22.257 -18.135  50.830  0.00  0.00     0.015 C 
HETATM   33  C   UNN     0     -22.854 -19.640  52.730  0.00  0.00     0.015 C 
HETATM   34  C   UNN     0     -23.630 -17.240  52.768  0.00  0.00     0.017 C 
HETATM   35  O   UNN     0     -25.994 -15.714  54.105  0.00  0.00    -0.374 OA
HETATM   36  C   UNN     0     -24.131 -14.344  53.626  0.00  0.00     0.008 C 
HETATM   37  C   UNN     0     -24.430 -13.245  54.329  0.00  0.00    -0.021 C 
BRANCH  15  38
HETATM   38  C   UNN     0     -28.386  -9.115  53.445  0.00  0.00     0.176 C 
BRANCH  38  39
HETATM   39  O   UNN     0     -27.510  -8.475  52.532  0.00  0.00    -0.400 OA
HETATM   40  H   UNN     0     -27.969  -7.742  52.113  0.00  0.00     0.209 HD
ENDBRANCH  38  39
ENDBRANCH  15  38
BRANCH  25  41
HETATM   41  O   UNN     0     -28.374 -17.177  51.422  0.00  0.00    -0.395 OA
HETATM   42  H   UNN     0     -28.790 -17.076  52.282  0.00  0.00     0.210 HD
ENDBRANCH  25  41
ENDBRANCH   7   8
ENDBRANCH   5   7
BRANCH   4  43
HETATM   43  O   UNN     0     -27.182  -5.521  52.974  0.00  0.00    -0.388 OA
HETATM   44  H   UNN     0     -26.733  -6.138  52.395  0.00  0.00     0.210 HD
ENDBRANCH   4  43
BRANCH   3  45
HETATM   45  O   UNN     0     -28.224  -5.132  55.474  0.00  0.00    -0.390 OA
HETATM   46  H   UNN     0     -28.270  -5.132  56.437  0.00  0.00     0.210 HD
ENDBRANCH   3  45
BRANCH   2  47
HETATM   47  C   UNN     0     -26.141  -6.016  57.796  0.00  0.00     0.205 C 
BRANCH  47  48
HETATM   48  O   UNN     0     -26.807  -5.146  58.682  0.00  0.00    -0.356 OA
BRANCH  48  49
HETATM   49  C   UNN     0     -26.690  -5.488  60.045  0.00  0.00     0.291 C 
HETATM   50  C   UNN     0     -25.300  -6.038  60.318  0.00  0.00     0.204 C 
HETATM   51  C   UNN     0     -24.267  -5.006  60.734  0.00  0.00     0.183 C 
HETATM   52  C   UNN     0     -24.875  -4.039  61.735  0.00  0.00     0.187 C 
HETATM   53  C   UNN     0     -26.134  -3.421  61.135  0.00  0.00     0.180 C 
HETATM   54  O   UNN     0     -27.094  -4.401  60.854  0.00  0.00    -0.348 OA
BRANCH  50  55
HETATM   55  O   UNN     0     -25.382  -7.038  61.311  0.00  0.00    -0.388 OA
HETATM   56  H   UNN     0     -25.765  -7.837  60.942  0.00  0.00     0.210 HD
ENDBRANCH  50  55
BRANCH  51  57
HETATM   57  O   UNN     0     -23.791  -4.299  59.615  0.00  0.00    -0.390 OA
HETATM   58  H   UNN     0     -22.864  -4.497  59.465  0.00  0.00     0.210 HD
ENDBRANCH  51  57
BRANCH  52  59
HETATM   59  O   UNN     0     -25.127  -4.783  62.898  0.00  0.00    -0.348 OA
BRANCH  59  60
HETATM   60  C   UNN     0     -24.048  -4.978  63.784  0.00  0.00     0.292 C 
HETATM   61  C   UNN     0     -24.574  -5.847  64.911  0.00  0.00     0.204 C 
HETATM   62  C   UNN     0     -23.561  -5.892  66.037  0.00  0.00     0.183 C 
HETATM   63  C   UNN     0     -23.208  -4.483  66.464  0.00  0.00     0.178 C 
HETATM   64  C   UNN     0     -22.738  -3.690  65.252  0.00  0.00     0.152 C 
HETATM   65  C   UNN     0     -22.429  -2.237  65.613  0.00  0.00     0.042 C 
HETATM   66  O   UNN     0     -23.732  -3.687  64.264  0.00  0.00    -0.351 OA
BRANCH  61  67
HETATM   67  O   UNN     0     -25.791  -5.280  65.345  0.00  0.00    -0.388 OA
HETATM   68  H   UNN     0     -26.048  -4.602  64.711  0.00  0.00     0.210 HD
ENDBRANCH  61  67
BRANCH  62  69
HETATM   69  O   UNN     0     -24.046  -6.609  67.146  0.00  0.00    -0.390 OA
HETATM   70  H   UNN     0     -24.495  -5.981  67.719  0.00  0.00     0.210 HD
ENDBRANCH  62  69
BRANCH  63  71
HETATM   71  O   UNN     0     -22.193  -4.565  67.434  0.00  0.00    -0.390 OA
HETATM   72  H   UNN     0     -22.285  -3.847  68.064  0.00  0.00     0.210 HD
ENDBRANCH  63  71
ENDBRANCH  59  60
ENDBRANCH  52  59
BRANCH  53  73
HETATM   73  C   UNN     0     -25.953  -2.443  59.973  0.00  0.00     0.198 C 
BRANCH  73  74
HETATM   74  O   UNN     0     -27.179  -2.261  59.295  0.00  0.00    -0.398 OA
HETATM   75  H   UNN     0     -27.439  -3.115  58.934  0.00  0.00     0.209 HD
ENDBRANCH  73  74
ENDBRANCH  53  73
ENDBRANCH  48  49
ENDBRANCH  47  48
ENDBRANCH   2  47
BRANCH   1  76
HETATM   76  O   UNN     0     -25.339  -2.997  55.771  0.00  0.00    -0.390 OA
HETATM   77  H   UNN     0     -24.841  -3.306  55.012  0.00  0.00     0.210 HD
ENDBRANCH   1  76
TORSDOF 20
ENDMDL
MODEL 3
REMARK VINA RESULT:      -8.6      3.139     12.952
REMARK  20 active torsions:
REMARK  status: ('A' for Active; 'I' for Inactive)
REMARK    1  A    between atoms: C_13  and  O_60 
REMARK    2  A    between atoms: C_15  and  O_61 
REMARK    3  A    between atoms: C_16  and  O_62 
REMARK    4  A    between atoms: C_17  and  O_65 
REMARK    5  A    between atoms: C_18  and  O_64 
REMARK    6  A    between atoms: C_18  and  C_20 
REMARK    7  A    between atoms: C_19  and  O_65 
REMARK    8  A    between atoms: C_21  and  O_66 
REMARK    9  A    between atoms: C_22  and  O_67 
REMARK   10  A    between atoms: C_23  and  O_69 
REMARK   11  A    between atoms: C_24  and  O_69 
REMARK   12  A    between atoms: C_24  and  C_26 
REMARK   13  A    between atoms: C_25  and  O_70 
REMARK   14  A    between atoms: C_27  and  O_71 
REMARK   15  A    between atoms: C_28  and  O_72 
REMARK   16  A    between atoms: C_29  and  O_75 
REMARK   17  A    between atoms: C_31  and  O_74 
REMARK   18  A    between atoms: C_31  and  C_40 
REMARK   19  A    between atoms: C_35  and  O_75 
REMARK   20  A    between atoms: C_51  and  O_76 
ROOT
HETATM    1  C   UNN     0     -27.101  -7.178  58.518  0.00  0.00     0.180 C 
HETATM    2  C   UNN     0     -27.994  -6.931  57.306  0.00  0.00     0.180 C 
HETATM    3  C   UNN     0     -26.005  -8.200  58.278  0.00  0.00     0.183 C 
HETATM    4  C   UNN     0     -26.627  -9.427  57.651  0.00  0.00     0.204 C 
HETATM    5  C   UNN     0     -27.395  -9.073  56.399  0.00  0.00     0.292 C 
HETATM    6  O   UNN     0     -28.395  -8.107  56.648  0.00  0.00    -0.348 OA
ENDROOT
BRANCH   5   7
HETATM    7  O   UNN     0     -26.517  -8.577  55.415  0.00  0.00    -0.352 OA
BRANCH   7   8
HETATM    8  C   UNN     0     -26.260  -9.418  54.325  0.00  0.00     0.135 C 
HETATM    9  C   UNN     0     -27.499 -10.212  53.942  0.00  0.00     0.034 C 
HETATM   10  C   UNN     0     -27.087 -11.290  52.939  0.00  0.00     0.012 C 
HETATM   11  C   UNN     0     -26.592 -10.698  51.597  0.00  0.00    -0.032 C 
HETATM   12  C   UNN     0     -27.904 -10.565  50.748  0.00  0.00     0.016 C 
HETATM   13  C   UNN     0     -25.962  -9.273  51.740  0.00  0.00     0.007 C 
HETATM   14  C   UNN     0     -25.674 -11.658  50.762  0.00  0.00     0.025 C 
HETATM   15  C   UNN     0     -25.719  -8.583  53.138  0.00  0.00     0.008 C 
HETATM   16  C   UNN     0     -24.882  -9.058  50.663  0.00  0.00     0.007 C 
HETATM   17  C   UNN     0     -26.437  -7.199  53.087  0.00  0.00     0.020 C 
HETATM   18  C   UNN     0     -23.712 -10.052  50.708  0.00  0.00     0.011 C 
HETATM   19  C   UNN     0     -24.119 -11.547  50.871  0.00  0.00    -0.026 C 
HETATM   20  C   UNN     0     -23.815 -11.886  52.359  0.00  0.00     0.016 C 
HETATM   21  C   UNN     0     -23.372 -12.564  49.854  0.00  0.00     0.002 C 
HETATM   22  C   UNN     0     -22.304 -13.377  50.647  0.00  0.00     0.019 C 
HETATM   23  C   UNN     0     -22.551 -11.896  48.713  0.00  0.00     0.046 C 
HETATM   24  C   UNN     0     -24.369 -13.533  49.112  0.00  0.00     0.091 C 
HETATM   25  C   UNN     0     -22.081 -12.850  47.600  0.00  0.00     0.130 C 
HETATM   26  C   UNN     0     -23.191 -13.802  47.120  0.00  0.00     0.014 C 
HETATM   27  C   UNN     0     -22.785 -14.678  45.917  0.00  0.00     0.015 C 
HETATM   28  C   UNN     0     -24.469 -13.006  46.863  0.00  0.00     0.181 C 
HETATM   29  C   UNN     0     -23.661 -14.643  48.321  0.00  0.00     0.039 C 
HETATM   30  C   UNN     0     -22.419 -16.100  46.355  0.00  0.00     0.010 C 
HETATM   31  C   UNN     0     -23.608 -16.837  47.016  0.00  0.00    -0.047 C 
HETATM   32  C   UNN     0     -23.045 -17.951  47.927  0.00  0.00     0.015 C 
HETATM   33  C   UNN     0     -24.487 -17.508  45.937  0.00  0.00     0.015 C 
HETATM   34  C   UNN     0     -24.478 -15.857  47.844  0.00  0.00     0.017 C 
HETATM   35  O   UNN     0     -25.068 -12.810  48.118  0.00  0.00    -0.374 OA
HETATM   36  C   UNN     0     -25.373 -14.020  50.125  0.00  0.00     0.008 C 
HETATM   37  C   UNN     0     -26.029 -13.123  50.870  0.00  0.00    -0.021 C 
BRANCH  15  38
HETATM   38  C   UNN     0     -24.236  -8.256  53.436  0.00  0.00     0.176 C 
BRANCH  38  39
HETATM   39  O   UNN     0     -23.877  -8.596  54.764  0.00  0.00    -0.400 OA
HETATM   40  H   UNN     0     -24.598  -8.370  55.357  0.00  0.00     0.209 HD
ENDBRANCH  38  39
ENDBRANCH  15  38
BRANCH  25  41
HETATM   41  O   UNN     0     -21.618 -12.060  46.526  0.00  0.00    -0.395 OA
HETATM   42  H   UNN     0     -20.911 -12.524  46.072  0.00  0.00     0.210 HD
ENDBRANCH  25  41
ENDBRANCH   7   8
ENDBRANCH   5   7
BRANCH   4  43
HETATM   43  O   UNN     0     -25.607 -10.341  57.332  0.00  0.00    -0.388 OA
HETATM   44  H   UNN     0     -24.810 -10.142  57.825  0.00  0.00     0.210 HD
ENDBRANCH   4  43
BRANCH   3  45
HETATM   45  O   UNN     0     -25.019  -7.670  57.422  0.00  0.00    -0.390 OA
HETATM   46  H   UNN     0     -24.996  -8.162  56.594  0.00  0.00     0.210 HD
ENDBRANCH   3  45
BRANCH   2  47
HETATM   47  C   UNN     0     -27.482  -5.859  56.343  0.00  0.00     0.205 C 
BRANCH  47  48
HETATM   48  O   UNN     0     -26.702  -4.937  57.067  0.00  0.00    -0.356 OA
BRANCH  48  49
HETATM   49  C   UNN     0     -25.806  -4.178  56.287  0.00  0.00     0.291 C 
HETATM   50  C   UNN     0     -26.547  -3.023  55.634  0.00  0.00     0.204 C 
HETATM   51  C   UNN     0     -26.568  -1.733  56.435  0.00  0.00     0.183 C 
HETATM   52  C   UNN     0     -25.195  -1.472  57.030  0.00  0.00     0.187 C 
HETATM   53  C   UNN     0     -24.766  -2.683  57.852  0.00  0.00     0.180 C 
HETATM   54  O   UNN     0     -24.671  -3.829  57.054  0.00  0.00    -0.348 OA
BRANCH  50  55
HETATM   55  O   UNN     0     -25.988  -2.770  54.363  0.00  0.00    -0.388 OA
HETATM   56  H   UNN     0     -25.361  -3.461  54.135  0.00  0.00     0.210 HD
ENDBRANCH  50  55
BRANCH  51  57
HETATM   57  O   UNN     0     -27.529  -1.799  57.459  0.00  0.00    -0.390 OA
HETATM   58  H   UNN     0     -27.850  -2.698  57.557  0.00  0.00     0.210 HD
ENDBRANCH  51  57
BRANCH  52  59
HETATM   59  O   UNN     0     -24.340  -1.209  55.949  0.00  0.00    -0.348 OA
BRANCH  59  60
HETATM   60  C   UNN     0     -24.030   0.142  55.687  0.00  0.00     0.292 C 
HETATM   61  C   UNN     0     -24.529   0.428  54.284  0.00  0.00     0.204 C 
HETATM   62  C   UNN     0     -24.009   1.774  53.821  0.00  0.00     0.183 C 
HETATM   63  C   UNN     0     -22.501   1.813  53.954  0.00  0.00     0.178 C 
HETATM   64  C   UNN     0     -22.111   1.467  55.385  0.00  0.00     0.152 C 
HETATM   65  C   UNN     0     -20.593   1.426  55.562  0.00  0.00     0.042 C 
HETATM   66  O   UNN     0     -22.619   0.207  55.731  0.00  0.00    -0.351 OA
BRANCH  61  67
HETATM   67  O   UNN     0     -24.061  -0.610  53.451  0.00  0.00    -0.388 OA
HETATM   68  H   UNN     0     -23.346  -0.258  52.908  0.00  0.00     0.210 HD
ENDBRANCH  61  67
BRANCH  62  69
HETATM   69  O   UNN     0     -24.367   2.042  52.488  0.00  0.00    -0.390 OA
HETATM   70  H   UNN     0     -24.920   1.314  52.187  0.00  0.00     0.210 HD
ENDBRANCH  62  69
BRANCH  63  71
HETATM   71  O   UNN     0     -22.068   3.107  53.616  0.00  0.00    -0.390 OA
HETATM   72  H   UNN     0     -21.384   3.058  52.946  0.00  0.00     0.210 HD
ENDBRANCH  63  71
ENDBRANCH  59  60
ENDBRANCH  52  59
BRANCH  53  73
HETATM   73  C   UNN     0     -25.520  -2.951  59.156  0.00  0.00     0.198 C 
BRANCH  73  74
HETATM   74  O   UNN     0     -25.773  -1.735  59.830  0.00  0.00    -0.398 OA
HETATM   75  H   UNN     0     -26.646  -1.802  60.231  0.00  0.00     0.209 HD
ENDBRANCH  73  74
ENDBRANCH  53  73
ENDBRANCH  48  49
ENDBRANCH  47  48
ENDBRANCH   2  47
BRANCH   1  76
HETATM   76  O   UNN     0     -27.901  -7.645  59.582  0.00  0.00    -0.390 OA
HETATM   77  H   UNN     0     -28.687  -7.103  59.664  0.00  0.00     0.210 HD
ENDBRANCH   1  76
TORSDOF 20
ENDMDL
MODEL 4
REMARK VINA RESULT:      -8.2      5.444     11.037
REMARK  20 active torsions:
REMARK  status: ('A' for Active; 'I' for Inactive)
REMARK    1  A    between atoms: C_13  and  O_60 
REMARK    2  A    between atoms: C_15  and  O_61 
REMARK    3  A    between atoms: C_16  and  O_62 
REMARK    4  A    between atoms: C_17  and  O_65 
REMARK    5  A    between atoms: C_18  and  O_64 
REMARK    6  A    between atoms: C_18  and  C_20 
REMARK    7  A    between atoms: C_19  and  O_65 
REMARK    8  A    between atoms: C_21  and  O_66 
REMARK    9  A    between atoms: C_22  and  O_67 
REMARK   10  A    between atoms: C_23  and  O_69 
REMARK   11  A    between atoms: C_24  and  O_69 
REMARK   12  A    between atoms: C_24  and  C_26 
REMARK   13  A    between atoms: C_25  and  O_70 
REMARK   14  A    between atoms: C_27  and  O_71 
REMARK   15  A    between atoms: C_28  and  O_72 
REMARK   16  A    between atoms: C_29  and  O_75 
REMARK   17  A    between atoms: C_31  and  O_74 
REMARK   18  A    between atoms: C_31  and  C_40 
REMARK   19  A    between atoms: C_35  and  O_75 
REMARK   20  A    between atoms: C_51  and  O_76 
ROOT
HETATM    1  C   UNN     0     -18.005   3.301  55.109  0.00  0.00     0.180 C 
HETATM    2  C   UNN     0     -17.941   2.962  53.623  0.00  0.00     0.180 C 
HETATM    3  C   UNN     0     -18.341   4.752  55.397  0.00  0.00     0.183 C 
HETATM    4  C   UNN     0     -17.438   5.626  54.555  0.00  0.00     0.204 C 
HETATM    5  C   UNN     0     -17.542   5.270  53.090  0.00  0.00     0.292 C 
HETATM    6  O   UNN     0     -17.242   3.910  52.855  0.00  0.00    -0.348 OA
ENDROOT
BRANCH   5   7
HETATM    7  O   UNN     0     -18.841   5.540  52.616  0.00  0.00    -0.352 OA
BRANCH   7   8
HETATM    8  C   UNN     0     -18.933   6.315  51.454  0.00  0.00     0.135 C 
HETATM    9  C   UNN     0     -18.729   5.465  50.210  0.00  0.00     0.034 C 
HETATM   10  C   UNN     0     -18.574   6.400  49.010  0.00  0.00     0.012 C 
HETATM   11  C   UNN     0     -19.864   7.201  48.707  0.00  0.00    -0.032 C 
HETATM   12  C   UNN     0     -20.660   6.262  47.735  0.00  0.00     0.016 C 
HETATM   13  C   UNN     0     -20.751   7.452  49.972  0.00  0.00     0.007 C 
HETATM   14  C   UNN     0     -19.633   8.519  47.889  0.00  0.00     0.025 C 
HETATM   15  C   UNN     0     -20.292   7.058  51.429  0.00  0.00     0.008 C 
HETATM   16  C   UNN     0     -21.529   8.773  49.822  0.00  0.00     0.007 C 
HETATM   17  C   UNN     0     -21.410   6.146  52.022  0.00  0.00     0.020 C 
HETATM   18  C   UNN     0     -20.657  10.025  49.654  0.00  0.00     0.011 C 
HETATM   19  C   UNN     0     -19.491   9.888  48.629  0.00  0.00    -0.026 C 
HETATM   20  C   UNN     0     -18.211   9.721  49.499  0.00  0.00     0.016 C 
HETATM   21  C   UNN     0     -19.358  11.122  47.589  0.00  0.00     0.002 C 
HETATM   22  C   UNN     0     -18.125  11.989  47.988  0.00  0.00     0.019 C 
HETATM   23  C   UNN     0     -20.537  12.140  47.593  0.00  0.00     0.046 C 
HETATM   24  C   UNN     0     -19.244  10.652  46.089  0.00  0.00     0.091 C 
HETATM   25  C   UNN     0     -20.541  13.140  46.424  0.00  0.00     0.130 C 
HETATM   26  C   UNN     0     -20.274  12.473  45.063  0.00  0.00     0.014 C 
HETATM   27  C   UNN     0     -20.403  13.431  43.862  0.00  0.00     0.015 C 
HETATM   28  C   UNN     0     -21.155  11.233  44.923  0.00  0.00     0.181 C 
HETATM   29  C   UNN     0     -18.894  11.792  45.121  0.00  0.00     0.039 C 
HETATM   30  C   UNN     0     -19.030  13.894  43.362  0.00  0.00     0.010 C 
HETATM   31  C   UNN     0     -18.160  12.719  42.857  0.00  0.00    -0.047 C 
HETATM   32  C   UNN     0     -16.676  13.139  42.944  0.00  0.00     0.015 C 
HETATM   33  C   UNN     0     -18.479  12.415  41.377  0.00  0.00     0.015 C 
HETATM   34  C   UNN     0     -18.405  11.443  43.704  0.00  0.00     0.017 C 
HETATM   35  O   UNN     0     -20.510  10.212  45.641  0.00  0.00    -0.374 OA
HETATM   36  C   UNN     0     -18.302   9.477  46.049  0.00  0.00     0.008 C 
HETATM   37  C   UNN     0     -18.521   8.442  46.868  0.00  0.00    -0.021 C 
BRANCH  15  38
HETATM   38  C   UNN     0     -20.188   8.253  52.407  0.00  0.00     0.176 C 
BRANCH  38  39
HETATM   39  O   UNN     0     -20.322   7.844  53.757  0.00  0.00    -0.400 OA
HETATM   40  H   UNN     0     -19.626   8.247  54.282  0.00  0.00     0.209 HD
ENDBRANCH  38  39
ENDBRANCH  15  38
BRANCH  25  41
HETATM   41  O   UNN     0     -21.799  13.782  46.413  0.00  0.00    -0.395 OA
HETATM   42  H   UNN     0     -22.215  13.680  47.272  0.00  0.00     0.210 HD
ENDBRANCH  25  41
ENDBRANCH   7   8
ENDBRANCH   5   7
BRANCH   4  43
HETATM   43  O   UNN     0     -17.808   6.971  54.738  0.00  0.00    -0.388 OA
HETATM   44  H   UNN     0     -18.716   7.111  54.465  0.00  0.00     0.210 HD
ENDBRANCH   4  43
BRANCH   3  45
HETATM   45  O   UNN     0     -19.690   5.015  55.086  0.00  0.00    -0.390 OA
HETATM   46  H   UNN     0     -19.807   5.946  54.866  0.00  0.00     0.210 HD
ENDBRANCH   3  45
BRANCH   2  47
HETATM   47  C   UNN     0     -19.281   2.567  53.000  0.00  0.00     0.205 C 
BRANCH  47  48
HETATM   48  O   UNN     0     -20.259   2.539  54.013  0.00  0.00    -0.356 OA
BRANCH  48  49
HETATM   49  C   UNN     0     -20.765   1.257  54.311  0.00  0.00     0.291 C 
HETATM   50  C   UNN     0     -21.659   1.331  55.537  0.00  0.00     0.204 C 
HETATM   51  C   UNN     0     -23.129   1.583  55.251  0.00  0.00     0.183 C 
HETATM   52  C   UNN     0     -23.579   0.736  54.073  0.00  0.00     0.187 C 
HETATM   53  C   UNN     0     -22.677   1.019  52.876  0.00  0.00     0.180 C 
HETATM   54  O   UNN     0     -21.346   0.685  53.156  0.00  0.00    -0.348 OA
BRANCH  50  55
HETATM   55  O   UNN     0     -21.530   0.138  56.281  0.00  0.00    -0.388 OA
HETATM   56  H   UNN     0     -21.807  -0.612  55.750  0.00  0.00     0.210 HD
ENDBRANCH  50  55
BRANCH  51  57
HETATM   57  O   UNN     0     -23.357   2.944  54.976  0.00  0.00    -0.390 OA
HETATM   58  H   UNN     0     -22.718   3.265  54.335  0.00  0.00     0.210 HD
ENDBRANCH  51  57
BRANCH  52  59
HETATM   59  O   UNN     0     -23.521  -0.598  54.503  0.00  0.00    -0.348 OA
BRANCH  59  60
HETATM   60  C   UNN     0     -24.734  -1.318  54.533  0.00  0.00     0.292 C 
HETATM   61  C   UNN     0     -25.384  -1.002  55.866  0.00  0.00     0.204 C 
HETATM   62  C   UNN     0     -26.560  -1.930  56.094  0.00  0.00     0.183 C 
HETATM   63  C   UNN     0     -26.109  -3.369  55.961  0.00  0.00     0.178 C 
HETATM   64  C   UNN     0     -25.431  -3.563  54.611  0.00  0.00     0.152 C 
HETATM   65  C   UNN     0     -24.896  -4.985  54.446  0.00  0.00     0.042 C 
HETATM   66  O   UNN     0     -24.352  -2.678  54.482  0.00  0.00    -0.351 OA
BRANCH  61  67
HETATM   67  O   UNN     0     -24.402  -1.172  56.864  0.00  0.00    -0.388 OA
HETATM   68  H   UNN     0     -24.289  -2.117  57.014  0.00  0.00     0.210 HD
ENDBRANCH  61  67
BRANCH  62  69
HETATM   69  O   UNN     0     -27.137  -1.737  57.362  0.00  0.00    -0.390 OA
HETATM   70  H   UNN     0     -27.994  -1.323  57.228  0.00  0.00     0.210 HD
ENDBRANCH  62  69
BRANCH  63  71
HETATM   71  O   UNN     0     -27.243  -4.192  56.075  0.00  0.00    -0.390 OA
HETATM   72  H   UNN     0     -27.433  -4.360  57.000  0.00  0.00     0.210 HD
ENDBRANCH  63  71
ENDBRANCH  59  60
ENDBRANCH  52  59
BRANCH  53  73
HETATM   73  C   UNN     0     -22.798   2.392  52.214  0.00  0.00     0.198 C 
BRANCH  73  74
HETATM   74  O   UNN     0     -24.157   2.765  52.113  0.00  0.00    -0.398 OA
HETATM   75  H   UNN     0     -24.187   3.718  51.977  0.00  0.00     0.209 HD
ENDBRANCH  73  74
ENDBRANCH  53  73
ENDBRANCH  48  49
ENDBRANCH  47  48
ENDBRANCH   2  47
BRANCH   1  76
HETATM   76  O   UNN     0     -16.749   3.026  55.690  0.00  0.00    -0.390 OA
HETATM   77  H   UNN     0     -16.848   2.387  56.400  0.00  0.00     0.210 HD
ENDBRANCH   1  76
TORSDOF 20
ENDMDL
MODEL 5
REMARK VINA RESULT:      -8.1     15.068     20.108
REMARK  20 active torsions:
REMARK  status: ('A' for Active; 'I' for Inactive)
REMARK    1  A    between atoms: C_13  and  O_60 
REMARK    2  A    between atoms: C_15  and  O_61 
REMARK    3  A    between atoms: C_16  and  O_62 
REMARK    4  A    between atoms: C_17  and  O_65 
REMARK    5  A    between atoms: C_18  and  O_64 
REMARK    6  A    between atoms: C_18  and  C_20 
REMARK    7  A    between atoms: C_19  and  O_65 
REMARK    8  A    between atoms: C_21  and  O_66 
REMARK    9  A    between atoms: C_22  and  O_67 
REMARK   10  A    between atoms: C_23  and  O_69 
REMARK   11  A    between atoms: C_24  and  O_69 
REMARK   12  A    between atoms: C_24  and  C_26 
REMARK   13  A    between atoms: C_25  and  O_70 
REMARK   14  A    between atoms: C_27  and  O_71 
REMARK   15  A    between atoms: C_28  and  O_72 
REMARK   16  A    between atoms: C_29  and  O_75 
REMARK   17  A    between atoms: C_31  and  O_74 
REMARK   18  A    between atoms: C_31  and  C_40 
REMARK   19  A    between atoms: C_35  and  O_75 
REMARK   20  A    between atoms: C_51  and  O_76 
ROOT
HETATM    1  C   UNN     0     -34.672   5.546  67.997  0.00  0.00     0.180 C 
HETATM    2  C   UNN     0     -36.042   4.883  67.885  0.00  0.00     0.180 C 
HETATM    3  C   UNN     0     -33.521   4.566  68.129  0.00  0.00     0.183 C 
HETATM    4  C   UNN     0     -33.867   3.568  69.212  0.00  0.00     0.204 C 
HETATM    5  C   UNN     0     -35.192   2.897  68.935  0.00  0.00     0.292 C 
HETATM    6  O   UNN     0     -36.240   3.834  68.799  0.00  0.00    -0.348 OA
ENDROOT
BRANCH   5   7
HETATM    7  O   UNN     0     -35.111   2.129  67.756  0.00  0.00    -0.352 OA
BRANCH   7   8
HETATM    8  C   UNN     0     -35.076   0.739  67.917  0.00  0.00     0.135 C 
HETATM    9  C   UNN     0     -36.238   0.258  68.773  0.00  0.00     0.034 C 
HETATM   10  C   UNN     0     -35.995  -1.210  69.130  0.00  0.00     0.012 C 
HETATM   11  C   UNN     0     -36.032  -2.139  67.893  0.00  0.00    -0.032 C 
HETATM   12  C   UNN     0     -37.545  -2.532  67.773  0.00  0.00     0.016 C 
HETATM   13  C   UNN     0     -35.611  -1.425  66.566  0.00  0.00     0.007 C 
HETATM   14  C   UNN     0     -35.279  -3.502  68.082  0.00  0.00     0.025 C 
HETATM   15  C   UNN     0     -35.059   0.053  66.529  0.00  0.00     0.008 C 
HETATM   16  C   UNN     0     -34.959  -2.433  65.601  0.00  0.00     0.007 C 
HETATM   17  C   UNN     0     -35.958   0.845  65.531  0.00  0.00     0.020 C 
HETATM   18  C   UNN     0     -33.696  -3.122  66.138  0.00  0.00     0.011 C 
HETATM   19  C   UNN     0     -33.802  -3.657  67.597  0.00  0.00    -0.026 C 
HETATM   20  C   UNN     0     -33.008  -2.632  68.459  0.00  0.00     0.016 C 
HETATM   21  C   UNN     0     -33.258  -5.169  67.803  0.00  0.00     0.002 C 
HETATM   22  C   UNN     0     -31.888  -5.118  68.545  0.00  0.00     0.019 C 
HETATM   23  C   UNN     0     -32.937  -5.955  66.497  0.00  0.00     0.046 C 
HETATM   24  C   UNN     0     -34.275  -6.088  68.579  0.00  0.00     0.091 C 
HETATM   25  C   UNN     0     -32.693  -7.462  66.684  0.00  0.00     0.130 C 
HETATM   26  C   UNN     0     -33.739  -8.130  67.594  0.00  0.00     0.014 C 
HETATM   27  C   UNN     0     -33.594  -9.663  67.693  0.00  0.00     0.015 C 
HETATM   28  C   UNN     0     -35.139  -7.699  67.163  0.00  0.00     0.181 C 
HETATM   29  C   UNN     0     -33.684  -7.449  68.975  0.00  0.00     0.039 C 
HETATM   30  C   UNN     0     -32.901 -10.079  68.994  0.00  0.00     0.010 C 
HETATM   31  C   UNN     0     -33.703  -9.662  70.249  0.00  0.00    -0.047 C 
HETATM   32  C   UNN     0     -32.726  -9.563  71.442  0.00  0.00     0.015 C 
HETATM   33  C   UNN     0     -34.758 -10.737  70.590  0.00  0.00     0.015 C 
HETATM   34  C   UNN     0     -34.414  -8.303  70.027  0.00  0.00     0.017 C 
HETATM   35  O   UNN     0     -35.347  -6.426  67.721  0.00  0.00    -0.374 OA
HETATM   36  C   UNN     0     -34.834  -5.285  69.725  0.00  0.00     0.008 C 
HETATM   37  C   UNN     0     -35.358  -4.079  69.477  0.00  0.00    -0.021 C 
BRANCH  15  38
HETATM   38  C   UNN     0     -33.624   0.181  65.964  0.00  0.00     0.176 C 
BRANCH  38  39
HETATM   39  O   UNN     0     -32.778   0.916  66.832  0.00  0.00    -0.400 OA
HETATM   40  H   UNN     0     -32.938   1.855  66.712  0.00  0.00     0.209 HD
ENDBRANCH  38  39
ENDBRANCH  15  38
BRANCH  25  41
HETATM   41  O   UNN     0     -32.707  -8.061  65.406  0.00  0.00    -0.395 OA
HETATM   42  H   UNN     0     -32.484  -8.991  65.487  0.00  0.00     0.210 HD
ENDBRANCH  25  41
ENDBRANCH   7   8
ENDBRANCH   5   7
BRANCH   4  43
HETATM   43  O   UNN     0     -32.853   2.595  69.273  0.00  0.00    -0.388 OA
HETATM   44  H   UNN     0     -32.856   2.056  68.482  0.00  0.00     0.210 HD
ENDBRANCH   4  43
BRANCH   3  45
HETATM   45  O   UNN     0     -33.306   3.896  66.909  0.00  0.00    -0.390 OA
HETATM   46  H   UNN     0     -34.138   3.550  66.566  0.00  0.00     0.210 HD
ENDBRANCH   3  45
BRANCH   2  47
HETATM   47  C   UNN     0     -36.457   4.514  66.460  0.00  0.00     0.205 C 
BRANCH  47  48
HETATM   48  O   UNN     0     -36.638   5.699  65.721  0.00  0.00    -0.356 OA
BRANCH  48  49
HETATM   49  C   UNN     0     -36.150   5.652  64.399  0.00  0.00     0.291 C 
HETATM   50  C   UNN     0     -36.520   4.322  63.764  0.00  0.00     0.204 C 
HETATM   51  C   UNN     0     -37.845   4.307  63.021  0.00  0.00     0.183 C 
HETATM   52  C   UNN     0     -37.990   5.572  62.195  0.00  0.00     0.187 C 
HETATM   53  C   UNN     0     -37.824   6.787  63.102  0.00  0.00     0.180 C 
HETATM   54  O   UNN     0     -36.554   6.808  63.692  0.00  0.00    -0.348 OA
BRANCH  50  55
HETATM   55  O   UNN     0     -35.491   3.926  62.883  0.00  0.00    -0.388 OA
HETATM   56  H   UNN     0     -35.209   4.671  62.348  0.00  0.00     0.210 HD
ENDBRANCH  50  55
BRANCH  51  57
HETATM   57  O   UNN     0     -38.919   4.198  63.923  0.00  0.00    -0.390 OA
HETATM   58  H   UNN     0     -38.606   3.897  64.779  0.00  0.00     0.210 HD
ENDBRANCH  51  57
BRANCH  52  59
HETATM   59  O   UNN     0     -37.014   5.499  61.189  0.00  0.00    -0.348 OA
BRANCH  59  60
HETATM   60  C   UNN     0     -37.469   5.403  59.857  0.00  0.00     0.292 C 
HETATM   61  C   UNN     0     -36.413   6.071  58.998  0.00  0.00     0.204 C 
HETATM   62  C   UNN     0     -36.937   6.246  57.587  0.00  0.00     0.183 C 
HETATM   63  C   UNN     0     -38.257   6.986  57.619  0.00  0.00     0.178 C 
HETATM   64  C   UNN     0     -39.223   6.257  58.544  0.00  0.00     0.152 C 
HETATM   65  C   UNN     0     -40.555   6.997  58.667  0.00  0.00     0.042 C 
HETATM   66  O   UNN     0     -38.671   6.146  59.827  0.00  0.00    -0.351 OA
BRANCH  61  67
HETATM   67  O   UNN     0     -36.118   7.319  59.587  0.00  0.00    -0.388 OA
HETATM   68  H   UNN     0     -36.255   7.240  60.538  0.00  0.00     0.210 HD
ENDBRANCH  61  67
BRANCH  62  69
HETATM   69  O   UNN     0     -36.027   6.948  56.775  0.00  0.00    -0.390 OA
HETATM   70  H   UNN     0     -35.147   6.620  56.980  0.00  0.00     0.210 HD
ENDBRANCH  62  69
BRANCH  63  71
HETATM   71  O   UNN     0     -38.760   7.036  56.307  0.00  0.00    -0.390 OA
HETATM   72  H   UNN     0     -39.594   6.565  56.259  0.00  0.00     0.210 HD
ENDBRANCH  63  71
ENDBRANCH  59  60
ENDBRANCH  52  59
BRANCH  53  73
HETATM   73  C   UNN     0     -38.934   7.063  64.117  0.00  0.00     0.198 C 
BRANCH  73  74
HETATM   74  O   UNN     0     -39.122   8.456  64.265  0.00  0.00    -0.398 OA
HETATM   75  H   UNN     0     -38.333   8.892  63.929  0.00  0.00     0.209 HD
ENDBRANCH  73  74
ENDBRANCH  53  73
ENDBRANCH  48  49
ENDBRANCH  47  48
ENDBRANCH   2  47
BRANCH   1  76
HETATM   76  O   UNN     0     -34.664   6.376  69.139  0.00  0.00    -0.390 OA
HETATM   77  H   UNN     0     -33.807   6.337  69.567  0.00  0.00     0.210 HD
ENDBRANCH   1  76
TORSDOF 20
ENDMDL
MODEL 6
REMARK VINA RESULT:      -7.9      3.718      8.135
REMARK  20 active torsions:
REMARK  status: ('A' for Active; 'I' for Inactive)
REMARK    1  A    between atoms: C_13  and  O_60 
REMARK    2  A    between atoms: C_15  and  O_61 
REMARK    3  A    between atoms: C_16  and  O_62 
REMARK    4  A    between atoms: C_17  and  O_65 
REMARK    5  A    between atoms: C_18  and  O_64 
REMARK    6  A    between atoms: C_18  and  C_20 
REMARK    7  A    between atoms: C_19  and  O_65 
REMARK    8  A    between atoms: C_21  and  O_66 
REMARK    9  A    between atoms: C_22  and  O_67 
REMARK   10  A    between atoms: C_23  and  O_69 
REMARK   11  A    between atoms: C_24  and  O_69 
REMARK   12  A    between atoms: C_24  and  C_26 
REMARK   13  A    between atoms: C_25  and  O_70 
REMARK   14  A    between atoms: C_27  and  O_71 
REMARK   15  A    between atoms: C_28  and  O_72 
REMARK   16  A    between atoms: C_29  and  O_75 
REMARK   17  A    between atoms: C_31  and  O_74 
REMARK   18  A    between atoms: C_31  and  C_40 
REMARK   19  A    between atoms: C_35  and  O_75 
REMARK   20  A    between atoms: C_51  and  O_76 
ROOT
HETATM    1  C   UNN     0     -26.643 -14.657  58.439  0.00  0.00     0.180 C 
HETATM    2  C   UNN     0     -26.200 -14.247  57.038  0.00  0.00     0.180 C 
HETATM    3  C   UNN     0     -26.841 -13.490  59.389  0.00  0.00     0.183 C 
HETATM    4  C   UNN     0     -25.621 -12.600  59.312  0.00  0.00     0.204 C 
HETATM    5  C   UNN     0     -25.345 -12.170  57.889  0.00  0.00     0.292 C 
HETATM    6  O   UNN     0     -25.184 -13.275  57.026  0.00  0.00    -0.348 OA
ENDROOT
BRANCH   5   7
HETATM    7  O   UNN     0     -26.401 -11.368  57.412  0.00  0.00    -0.352 OA
BRANCH   7   8
HETATM    8  C   UNN     0     -26.056 -10.094  56.944  0.00  0.00     0.135 C 
HETATM    9  C   UNN     0     -25.601 -10.148  55.494  0.00  0.00     0.034 C 
HETATM   10  C   UNN     0     -24.992  -8.793  55.132  0.00  0.00     0.012 C 
HETATM   11  C   UNN     0     -26.030  -7.646  55.155  0.00  0.00    -0.032 C 
HETATM   12  C   UNN     0     -26.615  -7.649  53.700  0.00  0.00     0.016 C 
HETATM   13  C   UNN     0     -27.211  -7.896  56.151  0.00  0.00     0.007 C 
HETATM   14  C   UNN     0     -25.414  -6.215  55.334  0.00  0.00     0.025 C 
HETATM   15  C   UNN     0     -27.249  -9.126  57.140  0.00  0.00     0.008 C 
HETATM   16  C   UNN     0     -27.747  -6.557  56.690  0.00  0.00     0.007 C 
HETATM   17  C   UNN     0     -28.592  -9.874  56.877  0.00  0.00     0.020 C 
HETATM   18  C   UNN     0     -26.720  -5.703  57.448  0.00  0.00     0.011 C 
HETATM   19  C   UNN     0     -25.331  -5.568  56.755  0.00  0.00    -0.026 C 
HETATM   20  C   UNN     0     -24.391  -6.518  57.552  0.00  0.00     0.016 C 
HETATM   21  C   UNN     0     -24.752  -4.056  56.693  0.00  0.00     0.002 C 
HETATM   22  C   UNN     0     -23.594  -3.915  57.727  0.00  0.00     0.019 C 
HETATM   23  C   UNN     0     -25.749  -2.934  57.105  0.00  0.00     0.046 C 
HETATM   24  C   UNN     0     -24.262  -3.644  55.253  0.00  0.00     0.091 C 
HETATM   25  C   UNN     0     -25.292  -1.501  56.780  0.00  0.00     0.130 C 
HETATM   26  C   UNN     0     -24.721  -1.362  55.358  0.00  0.00     0.014 C 
HETATM   27  C   UNN     0     -24.377   0.088  54.961  0.00  0.00     0.015 C 
HETATM   28  C   UNN     0     -25.665  -2.035  54.363  0.00  0.00     0.181 C 
HETATM   29  C   UNN     0     -23.511  -2.305  55.227  0.00  0.00     0.039 C 
HETATM   30  C   UNN     0     -22.873   0.360  55.072  0.00  0.00     0.010 C 
HETATM   31  C   UNN     0     -22.041  -0.533  54.121  0.00  0.00    -0.047 C 
HETATM   32  C   UNN     0     -20.608  -0.644  54.687  0.00  0.00     0.015 C 
HETATM   33  C   UNN     0     -21.949   0.116  52.723  0.00  0.00     0.015 C 
HETATM   34  C   UNN     0     -22.674  -1.942  53.988  0.00  0.00     0.017 C 
HETATM   35  O   UNN     0     -25.386  -3.411  54.428  0.00  0.00    -0.374 OA
HETATM   36  C   UNN     0     -23.498  -4.809  54.679  0.00  0.00     0.008 C 
HETATM   37  C   UNN     0     -24.070  -6.019  54.671  0.00  0.00    -0.021 C 
BRANCH  15  38
HETATM   38  C   UNN     0     -27.292  -8.737  58.637  0.00  0.00     0.176 C 
BRANCH  38  39
HETATM   39  O   UNN     0     -27.904  -9.741  59.427  0.00  0.00    -0.400 OA
HETATM   40  H   UNN     0     -27.635 -10.606  59.107  0.00  0.00     0.209 HD
ENDBRANCH  38  39
ENDBRANCH  15  38
BRANCH  25  41
HETATM   41  O   UNN     0     -26.404  -0.648  56.944  0.00  0.00    -0.395 OA
HETATM   42  H   UNN     0     -26.137   0.260  56.780  0.00  0.00     0.210 HD
ENDBRANCH  25  41
ENDBRANCH   7   8
ENDBRANCH   5   7
BRANCH   4  43
HETATM   43  O   UNN     0     -25.836 -11.463  60.111  0.00  0.00    -0.388 OA
HETATM   44  H   UNN     0     -26.269 -10.773  59.606  0.00  0.00     0.210 HD
ENDBRANCH   4  43
BRANCH   3  45
HETATM   45  O   UNN     0     -27.992 -12.759  59.034  0.00  0.00    -0.390 OA
HETATM   46  H   UNN     0     -28.051 -11.953  59.559  0.00  0.00     0.210 HD
ENDBRANCH   3  45
BRANCH   2  47
HETATM   47  C   UNN     0     -27.344 -13.919  56.077  0.00  0.00     0.205 C 
BRANCH  47  48
HETATM   48  O   UNN     0     -27.030 -14.441  54.807  0.00  0.00    -0.356 OA
BRANCH  48  49
HETATM   49  C   UNN     0     -26.610 -13.484  53.861  0.00  0.00     0.291 C 
HETATM   50  C   UNN     0     -25.155 -13.729  53.496  0.00  0.00     0.204 C 
HETATM   51  C   UNN     0     -24.933 -14.649  52.309  0.00  0.00     0.183 C 
HETATM   52  C   UNN     0     -25.913 -14.309  51.200  0.00  0.00     0.187 C 
HETATM   53  C   UNN     0     -27.334 -14.369  51.749  0.00  0.00     0.180 C 
HETATM   54  O   UNN     0     -27.519 -13.439  52.779  0.00  0.00    -0.348 OA
BRANCH  50  55
HETATM   55  O   UNN     0     -24.522 -12.492  53.248  0.00  0.00    -0.388 OA
HETATM   56  H   UNN     0     -25.180 -11.807  53.107  0.00  0.00     0.210 HD
ENDBRANCH  50  55
BRANCH  51  57
HETATM   57  O   UNN     0     -25.087 -15.996  52.687  0.00  0.00    -0.390 OA
HETATM   58  H   UNN     0     -24.292 -16.313  53.119  0.00  0.00     0.210 HD
ENDBRANCH  51  57
BRANCH  52  59
HETATM   59  O   UNN     0     -25.555 -13.033  50.737  0.00  0.00    -0.348 OA
BRANCH  59  60
HETATM   60  C   UNN     0     -24.524 -12.962  49.777  0.00  0.00     0.292 C 
HETATM   61  C   UNN     0     -24.673 -11.617  49.092  0.00  0.00     0.204 C 
HETATM   62  C   UNN     0     -23.774 -11.562  47.873  0.00  0.00     0.183 C 
HETATM   63  C   UNN     0     -24.063 -12.743  46.971  0.00  0.00     0.178 C 
HETATM   64  C   UNN     0     -23.930 -14.033  47.769  0.00  0.00     0.152 C 
HETATM   65  C   UNN     0     -24.275 -15.259  46.923  0.00  0.00     0.042 C 
HETATM   66  O   UNN     0     -24.799 -14.010  48.869  0.00  0.00    -0.351 OA
BRANCH  61  67
HETATM   67  O   UNN     0     -26.029 -11.478  48.728  0.00  0.00    -0.388 OA
HETATM   68  H   UNN     0     -26.070 -11.333  47.776  0.00  0.00     0.210 HD
ENDBRANCH  61  67
BRANCH  62  69
HETATM   69  O   UNN     0     -23.949 -10.368  47.150  0.00  0.00    -0.390 OA
HETATM   70  H   UNN     0     -23.155 -10.231  46.625  0.00  0.00     0.210 HD
ENDBRANCH  62  69
BRANCH  63  71
HETATM   71  O   UNN     0     -23.142 -12.714  45.909  0.00  0.00    -0.390 OA
HETATM   72  H   UNN     0     -23.609 -12.703  45.071  0.00  0.00     0.210 HD
ENDBRANCH  63  71
ENDBRANCH  59  60
ENDBRANCH  52  59
BRANCH  53  73
HETATM   73  C   UNN     0     -27.890 -15.747  52.113  0.00  0.00     0.198 C 
BRANCH  73  74
HETATM   74  O   UNN     0     -29.029 -15.610  52.937  0.00  0.00    -0.398 OA
HETATM   75  H   UNN     0     -28.721 -15.403  53.825  0.00  0.00     0.209 HD
ENDBRANCH  73  74
ENDBRANCH  53  73
ENDBRANCH  48  49
ENDBRANCH  47  48
ENDBRANCH   2  47
BRANCH   1  76
HETATM   76  O   UNN     0     -25.659 -15.502  58.995  0.00  0.00    -0.390 OA
HETATM   77  H   UNN     0     -24.897 -14.986  59.265  0.00  0.00     0.210 HD
ENDBRANCH   1  76
TORSDOF 20
ENDMDL
MODEL 7
REMARK VINA RESULT:      -7.6     15.558     20.364
REMARK  20 active torsions:
REMARK  status: ('A' for Active; 'I' for Inactive)
REMARK    1  A    between atoms: C_13  and  O_60 
REMARK    2  A    between atoms: C_15  and  O_61 
REMARK    3  A    between atoms: C_16  and  O_62 
REMARK    4  A    between atoms: C_17  and  O_65 
REMARK    5  A    between atoms: C_18  and  O_64 
REMARK    6  A    between atoms: C_18  and  C_20 
REMARK    7  A    between atoms: C_19  and  O_65 
REMARK    8  A    between atoms: C_21  and  O_66 
REMARK    9  A    between atoms: C_22  and  O_67 
REMARK   10  A    between atoms: C_23  and  O_69 
REMARK   11  A    between atoms: C_24  and  O_69 
REMARK   12  A    between atoms: C_24  and  C_26 
REMARK   13  A    between atoms: C_25  and  O_70 
REMARK   14  A    between atoms: C_27  and  O_71 
REMARK   15  A    between atoms: C_28  and  O_72 
REMARK   16  A    between atoms: C_29  and  O_75 
REMARK   17  A    between atoms: C_31  and  O_74 
REMARK   18  A    between atoms: C_31  and  C_40 
REMARK   19  A    between atoms: C_35  and  O_75 
REMARK   20  A    between atoms: C_51  and  O_76 
ROOT
HETATM    1  C   UNN     0     -34.964   4.637  67.043  0.00  0.00     0.180 C 
HETATM    2  C   UNN     0     -36.137   3.857  67.630  0.00  0.00     0.180 C 
HETATM    3  C   UNN     0     -33.767   3.775  66.690  0.00  0.00     0.183 C 
HETATM    4  C   UNN     0     -33.450   2.889  67.874  0.00  0.00     0.204 C 
HETATM    5  C   UNN     0     -34.659   2.086  68.296  0.00  0.00     0.292 C 
HETATM    6  O   UNN     0     -35.762   2.913  68.601  0.00  0.00    -0.348 OA
ENDROOT
BRANCH   5   7
HETATM    7  O   UNN     0     -35.028   1.191  67.272  0.00  0.00    -0.352 OA
BRANCH   7   8
HETATM    8  C   UNN     0     -34.981  -0.172  67.586  0.00  0.00     0.135 C 
HETATM    9  C   UNN     0     -36.107  -0.555  68.534  0.00  0.00     0.034 C 
HETATM   10  C   UNN     0     -35.843  -1.973  69.043  0.00  0.00     0.012 C 
HETATM   11  C   UNN     0     -35.922  -3.036  67.920  0.00  0.00    -0.032 C 
HETATM   12  C   UNN     0     -37.437  -3.441  67.903  0.00  0.00     0.016 C 
HETATM   13  C   UNN     0     -35.555  -2.474  66.506  0.00  0.00     0.007 C 
HETATM   14  C   UNN     0     -35.156  -4.369  68.232  0.00  0.00     0.025 C 
HETATM   15  C   UNN     0     -35.012  -1.009  66.283  0.00  0.00     0.008 C 
HETATM   16  C   UNN     0     -34.935  -3.584  65.637  0.00  0.00     0.007 C 
HETATM   17  C   UNN     0     -35.952  -0.335  65.238  0.00  0.00     0.020 C 
HETATM   18  C   UNN     0     -33.648  -4.207  66.199  0.00  0.00     0.011 C 
HETATM   19  C   UNN     0     -33.697  -4.575  67.712  0.00  0.00    -0.026 C 
HETATM   20  C   UNN     0     -32.876  -3.460  68.423  0.00  0.00     0.016 C 
HETATM   21  C   UNN     0     -33.138  -6.055  68.065  0.00  0.00     0.002 C 
HETATM   22  C   UNN     0     -31.741  -5.919  68.744  0.00  0.00     0.019 C 
HETATM   23  C   UNN     0     -32.863  -6.981  66.844  0.00  0.00     0.046 C 
HETATM   24  C   UNN     0     -34.121  -6.881  68.977  0.00  0.00     0.091 C 
HETATM   25  C   UNN     0     -32.604  -8.458  67.189  0.00  0.00     0.130 C 
HETATM   26  C   UNN     0     -33.611  -9.021  68.207  0.00  0.00     0.014 C 
HETATM   27  C   UNN     0     -33.455 -10.532  68.472  0.00  0.00     0.015 C 
HETATM   28  C   UNN     0     -35.029  -8.642  67.784  0.00  0.00     0.181 C 
HETATM   29  C   UNN     0     -33.509  -8.189  69.500  0.00  0.00     0.039 C 
HETATM   30  C   UNN     0     -32.711 -10.800  69.784  0.00  0.00     0.010 C 
HETATM   31  C   UNN     0     -33.468 -10.245  71.014  0.00  0.00    -0.047 C 
HETATM   32  C   UNN     0     -32.447 -10.013  72.151  0.00  0.00     0.015 C 
HETATM   33  C   UNN     0     -34.504 -11.276  71.513  0.00  0.00     0.015 C 
HETATM   34  C   UNN     0     -34.194  -8.920  70.668  0.00  0.00     0.017 C 
HETATM   35  O   UNN     0     -35.222  -7.315  68.204  0.00  0.00    -0.374 OA
HETATM   36  C   UNN     0     -34.640  -5.955  70.046  0.00  0.00     0.008 C 
HETATM   37  C   UNN     0     -35.179  -4.785  69.685  0.00  0.00    -0.021 C 
BRANCH  15  38
HETATM   38  C   UNN     0     -33.599  -0.944  65.654  0.00  0.00     0.176 C 
BRANCH  38  39
HETATM   39  O   UNN     0     -33.155   0.391  65.489  0.00  0.00    -0.400 OA
HETATM   40  H   UNN     0     -32.764   0.490  64.617  0.00  0.00     0.209 HD
ENDBRANCH  38  39
ENDBRANCH  15  38
BRANCH  25  41
HETATM   41  O   UNN     0     -32.663  -9.197  65.988  0.00  0.00    -0.395 OA
HETATM   42  H   UNN     0     -33.540  -9.112  65.605  0.00  0.00     0.210 HD
ENDBRANCH  25  41
ENDBRANCH   7   8
ENDBRANCH   5   7
BRANCH   4  43
HETATM   43  O   UNN     0     -32.406   2.015  67.522  0.00  0.00    -0.388 OA
HETATM   44  H   UNN     0     -32.255   1.374  68.218  0.00  0.00     0.210 HD
ENDBRANCH   4  43
BRANCH   3  45
HETATM   45  O   UNN     0     -34.050   2.982  65.559  0.00  0.00    -0.390 OA
HETATM   46  H   UNN     0     -33.668   2.103  65.664  0.00  0.00     0.210 HD
ENDBRANCH   3  45
BRANCH   2  47
HETATM   47  C   UNN     0     -37.107   3.288  66.593  0.00  0.00     0.205 C 
BRANCH  47  48
HETATM   48  O   UNN     0     -36.667   3.663  65.309  0.00  0.00    -0.356 OA
BRANCH  48  49
HETATM   49  C   UNN     0     -37.362   4.750  64.740  0.00  0.00     0.291 C 
HETATM   50  C   UNN     0     -36.439   5.516  63.807  0.00  0.00     0.204 C 
HETATM   51  C   UNN     0     -36.456   5.056  62.360  0.00  0.00     0.183 C 
HETATM   52  C   UNN     0     -37.885   4.796  61.916  0.00  0.00     0.187 C 
HETATM   53  C   UNN     0     -38.534   3.800  62.872  0.00  0.00     0.180 C 
HETATM   54  O   UNN     0     -38.580   4.305  64.176  0.00  0.00    -0.348 OA
BRANCH  50  55
HETATM   55  O   UNN     0     -36.759   6.890  63.861  0.00  0.00    -0.388 OA
HETATM   56  H   UNN     0     -35.978   7.402  64.083  0.00  0.00     0.210 HD
ENDBRANCH  50  55
BRANCH  51  57
HETATM   57  O   UNN     0     -35.686   3.890  62.199  0.00  0.00    -0.390 OA
HETATM   58  H   UNN     0     -35.969   3.216  62.821  0.00  0.00     0.210 HD
ENDBRANCH  51  57
BRANCH  52  59
HETATM   59  O   UNN     0     -38.527   6.044  61.904  0.00  0.00    -0.348 OA
BRANCH  59  60
HETATM   60  C   UNN     0     -38.222   6.914  60.836  0.00  0.00     0.292 C 
HETATM   61  C   UNN     0     -38.832   8.256  61.193  0.00  0.00     0.204 C 
HETATM   62  C   UNN     0     -38.780   9.177  59.991  0.00  0.00     0.183 C 
HETATM   63  C   UNN     0     -39.435   8.505  58.803  0.00  0.00     0.178 C 
HETATM   64  C   UNN     0     -38.779   7.151  58.564  0.00  0.00     0.152 C 
HETATM   65  C   UNN     0     -39.446   6.396  57.413  0.00  0.00     0.042 C 
HETATM   66  O   UNN     0     -38.879   6.358  59.714  0.00  0.00    -0.351 OA
BRANCH  61  67
HETATM   67  O   UNN     0     -40.163   8.020  61.594  0.00  0.00    -0.388 OA
HETATM   68  H   UNN     0     -40.196   8.056  62.557  0.00  0.00     0.210 HD
ENDBRANCH  61  67
BRANCH  62  69
HETATM   69  O   UNN     0     -39.420  10.403  60.245  0.00  0.00    -0.390 OA
HETATM   70  H   UNN     0     -39.757  10.370  61.146  0.00  0.00     0.210 HD
ENDBRANCH  62  69
BRANCH  63  71
HETATM   71  O   UNN     0     -39.275   9.344  57.686  0.00  0.00    -0.390 OA
HETATM   72  H   UNN     0     -39.628  10.214  57.878  0.00  0.00     0.210 HD
ENDBRANCH  63  71
ENDBRANCH  59  60
ENDBRANCH  52  59
BRANCH  53  73
HETATM   73  C   UNN     0     -38.029   2.356  62.831  0.00  0.00     0.198 C 
BRANCH  73  74
HETATM   74  O   UNN     0     -38.598   1.613  63.890  0.00  0.00    -0.398 OA
HETATM   75  H   UNN     0     -38.079   0.809  63.991  0.00  0.00     0.209 HD
ENDBRANCH  73  74
ENDBRANCH  53  73
ENDBRANCH  48  49
ENDBRANCH  47  48
ENDBRANCH   2  47
BRANCH   1  76
HETATM   76  O   UNN     0     -34.541   5.595  67.988  0.00  0.00    -0.390 OA
HETATM   77  H   UNN     0     -33.584   5.592  68.053  0.00  0.00     0.210 HD
ENDBRANCH   1  76
TORSDOF 20
ENDMDL
MODEL 8
REMARK VINA RESULT:      -7.6      4.313      9.038
REMARK  20 active torsions:
REMARK  status: ('A' for Active; 'I' for Inactive)
REMARK    1  A    between atoms: C_13  and  O_60 
REMARK    2  A    between atoms: C_15  and  O_61 
REMARK    3  A    between atoms: C_16  and  O_62 
REMARK    4  A    between atoms: C_17  and  O_65 
REMARK    5  A    between atoms: C_18  and  O_64 
REMARK    6  A    between atoms: C_18  and  C_20 
REMARK    7  A    between atoms: C_19  and  O_65 
REMARK    8  A    between atoms: C_21  and  O_66 
REMARK    9  A    between atoms: C_22  and  O_67 
REMARK   10  A    between atoms: C_23  and  O_69 
REMARK   11  A    between atoms: C_24  and  O_69 
REMARK   12  A    between atoms: C_24  and  C_26 
REMARK   13  A    between atoms: C_25  and  O_70 
REMARK   14  A    between atoms: C_27  and  O_71 
REMARK   15  A    between atoms: C_28  and  O_72 
REMARK   16  A    between atoms: C_29  and  O_75 
REMARK   17  A    between atoms: C_31  and  O_74 
REMARK   18  A    between atoms: C_31  and  C_40 
REMARK   19  A    between atoms: C_35  and  O_75 
REMARK   20  A    between atoms: C_51  and  O_76 
ROOT
HETATM    1  C   UNN     0     -25.871 -15.381  57.971  0.00  0.00     0.180 C 
HETATM    2  C   UNN     0     -25.793 -14.397  56.807  0.00  0.00     0.180 C 
HETATM    3  C   UNN     0     -25.948 -14.718  59.334  0.00  0.00     0.183 C 
HETATM    4  C   UNN     0     -24.858 -13.673  59.419  0.00  0.00     0.204 C 
HETATM    5  C   UNN     0     -24.950 -12.692  58.273  0.00  0.00     0.292 C 
HETATM    6  O   UNN     0     -24.894 -13.338  57.019  0.00  0.00    -0.348 OA
ENDROOT
BRANCH   5   7
HETATM    7  O   UNN     0     -26.152 -11.960  58.356  0.00  0.00    -0.352 OA
BRANCH   7   8
HETATM    8  C   UNN     0     -26.103 -10.627  57.931  0.00  0.00     0.135 C 
HETATM    9  C   UNN     0     -26.811 -10.452  56.596  0.00  0.00     0.034 C 
HETATM   10  C   UNN     0     -26.493  -9.053  56.065  0.00  0.00     0.012 C 
HETATM   11  C   UNN     0     -27.081  -7.929  56.952  0.00  0.00    -0.032 C 
HETATM   12  C   UNN     0     -28.517  -7.708  56.361  0.00  0.00     0.016 C 
HETATM   13  C   UNN     0     -27.234  -8.339  58.454  0.00  0.00     0.007 C 
HETATM   14  C   UNN     0     -26.369  -6.540  56.798  0.00  0.00     0.025 C 
HETATM   15  C   UNN     0     -26.697  -9.708  59.026  0.00  0.00     0.008 C 
HETATM   16  C   UNN     0     -27.086  -7.102  59.361  0.00  0.00     0.007 C 
HETATM   17  C   UNN     0     -27.904 -10.412  59.718  0.00  0.00     0.020 C 
HETATM   18  C   UNN     0     -25.740  -6.372  59.249  0.00  0.00     0.011 C 
HETATM   19  C   UNN     0     -25.240  -6.123  57.795  0.00  0.00    -0.026 C 
HETATM   20  C   UNN     0     -24.121  -7.181  57.569  0.00  0.00     0.016 C 
HETATM   21  C   UNN     0     -24.714  -4.617  57.511  0.00  0.00     0.002 C 
HETATM   22  C   UNN     0     -23.159  -4.633  57.417  0.00  0.00     0.019 C 
HETATM   23  C   UNN     0     -25.003  -3.578  58.634  0.00  0.00     0.046 C 
HETATM   24  C   UNN     0     -25.342  -3.983  56.212  0.00  0.00     0.091 C 
HETATM   25  C   UNN     0     -24.756  -2.110  58.246  0.00  0.00     0.130 C 
HETATM   26  C   UNN     0     -25.344  -1.747  56.870  0.00  0.00     0.014 C 
HETATM   27  C   UNN     0     -25.226  -0.251  56.514  0.00  0.00     0.015 C 
HETATM   28  C   UNN     0     -26.779  -2.262  56.778  0.00  0.00     0.181 C 
HETATM   29  C   UNN     0     -24.688  -2.652  55.810  0.00  0.00     0.039 C 
HETATM   30  C   UNN     0     -24.064   0.008  55.549  0.00  0.00     0.010 C 
HETATM   31  C   UNN     0     -24.247  -0.722  54.198  0.00  0.00    -0.047 C 
HETATM   32  C   UNN     0     -22.855  -0.912  53.554  0.00  0.00     0.015 C 
HETATM   33  C   UNN     0     -25.097   0.139  53.238  0.00  0.00     0.015 C 
HETATM   34  C   UNN     0     -24.936  -2.095  54.397  0.00  0.00     0.017 C 
HETATM   35  O   UNN     0     -26.686  -3.629  56.468  0.00  0.00    -0.374 OA
HETATM   36  C   UNN     0     -25.336  -5.039  55.138  0.00  0.00     0.008 C 
HETATM   37  C   UNN     0     -25.872  -6.236  55.403  0.00  0.00    -0.021 C 
BRANCH  15  38
HETATM   38  C   UNN     0     -25.630  -9.557  60.137  0.00  0.00     0.176 C 
BRANCH  38  39
HETATM   39  O   UNN     0     -25.835 -10.477  61.195  0.00  0.00    -0.400 OA
HETATM   40  H   UNN     0     -25.438 -11.321  60.964  0.00  0.00     0.209 HD
ENDBRANCH  38  39
ENDBRANCH  15  38
BRANCH  25  41
HETATM   41  O   UNN     0     -25.330  -1.298  59.248  0.00  0.00    -0.395 OA
HETATM   42  H   UNN     0     -25.633  -1.853  59.971  0.00  0.00     0.210 HD
ENDBRANCH  25  41
ENDBRANCH   7   8
ENDBRANCH   5   7
BRANCH   4  43
HETATM   43  O   UNN     0     -24.984 -12.983  60.638  0.00  0.00    -0.388 OA
HETATM   44  H   UNN     0     -25.382 -12.123  60.498  0.00  0.00     0.210 HD
ENDBRANCH   4  43
BRANCH   3  45
HETATM   45  O   UNN     0     -27.208 -14.114  59.514  0.00  0.00    -0.390 OA
HETATM   46  H   UNN     0     -27.907 -14.774  59.450  0.00  0.00     0.210 HD
ENDBRANCH   3  45
BRANCH   2  47
HETATM   47  C   UNN     0     -27.149 -13.926  56.278  0.00  0.00     0.205 C 
BRANCH  47  48
HETATM   48  O   UNN     0     -27.423 -14.603  55.073  0.00  0.00    -0.356 OA
BRANCH  48  49
HETATM   49  C   UNN     0     -26.371 -14.592  54.136  0.00  0.00     0.291 C 
HETATM   50  C   UNN     0     -26.678 -15.563  53.008  0.00  0.00     0.204 C 
HETATM   51  C   UNN     0     -27.420 -14.965  51.825  0.00  0.00     0.183 C 
HETATM   52  C   UNN     0     -26.831 -13.610  51.476  0.00  0.00     0.187 C 
HETATM   53  C   UNN     0     -26.855 -12.718  52.714  0.00  0.00     0.180 C 
HETATM   54  O   UNN     0     -26.083 -13.263  53.746  0.00  0.00    -0.348 OA
BRANCH  50  55
HETATM   55  O   UNN     0     -25.476 -16.146  52.555  0.00  0.00    -0.388 OA
HETATM   56  H   UNN     0     -24.844 -15.461  52.322  0.00  0.00     0.210 HD
ENDBRANCH  50  55
BRANCH  51  57
HETATM   57  O   UNN     0     -28.790 -14.831  52.113  0.00  0.00    -0.390 OA
HETATM   58  H   UNN     0     -29.283 -15.565  51.738  0.00  0.00     0.210 HD
ENDBRANCH  51  57
BRANCH  52  59
HETATM   59  O   UNN     0     -25.534 -13.855  51.000  0.00  0.00    -0.348 OA
BRANCH  59  60
HETATM   60  C   UNN     0     -25.372 -13.972  49.604  0.00  0.00     0.292 C 
HETATM   61  C   UNN     0     -24.192 -14.900  49.389  0.00  0.00     0.204 C 
HETATM   62  C   UNN     0     -23.783 -14.879  47.930  0.00  0.00     0.183 C 
HETATM   63  C   UNN     0     -23.527 -13.452  47.492  0.00  0.00     0.178 C 
HETATM   64  C   UNN     0     -24.754 -12.602  47.795  0.00  0.00     0.152 C 
HETATM   65  C   UNN     0     -24.528 -11.134  47.433  0.00  0.00     0.042 C 
HETATM   66  O   UNN     0     -25.059 -12.667  49.162  0.00  0.00    -0.351 OA
BRANCH  61  67
HETATM   67  O   UNN     0     -23.143 -14.446  50.216  0.00  0.00    -0.388 OA
HETATM   68  H   UNN     0     -23.272 -14.821  51.095  0.00  0.00     0.210 HD
ENDBRANCH  61  67
BRANCH  62  69
HETATM   69  O   UNN     0     -22.631 -15.652  47.699  0.00  0.00    -0.390 OA
HETATM   70  H   UNN     0     -22.088 -15.601  48.490  0.00  0.00     0.210 HD
ENDBRANCH  62  69
BRANCH  63  71
HETATM   71  O   UNN     0     -23.254 -13.463  46.113  0.00  0.00    -0.390 OA
HETATM   72  H   UNN     0     -23.568 -14.281  45.724  0.00  0.00     0.210 HD
ENDBRANCH  63  71
ENDBRANCH  59  60
ENDBRANCH  52  59
BRANCH  53  73
HETATM   73  C   UNN     0     -28.221 -12.239  53.208  0.00  0.00     0.198 C 
BRANCH  73  74
HETATM   74  O   UNN     0     -29.029 -11.861  52.113  0.00  0.00    -0.398 OA
HETATM   75  H   UNN     0     -29.510 -11.067  52.367  0.00  0.00     0.209 HD
ENDBRANCH  73  74
ENDBRANCH  53  73
ENDBRANCH  48  49
ENDBRANCH  47  48
ENDBRANCH   2  47
BRANCH   1  76
HETATM   76  O   UNN     0     -24.718 -16.194  57.953  0.00  0.00    -0.390 OA
HETATM   77  H   UNN     0     -24.284 -16.131  57.099  0.00  0.00     0.210 HD
ENDBRANCH   1  76
TORSDOF 20
ENDMDL
MODEL 9
REMARK VINA RESULT:      -7.5     31.339     36.039
REMARK  20 active torsions:
REMARK  status: ('A' for Active; 'I' for Inactive)
REMARK    1  A    between atoms: C_13  and  O_60 
REMARK    2  A    between atoms: C_15  and  O_61 
REMARK    3  A    between atoms: C_16  and  O_62 
REMARK    4  A    between atoms: C_17  and  O_65 
REMARK    5  A    between atoms: C_18  and  O_64 
REMARK    6  A    between atoms: C_18  and  C_20 
REMARK    7  A    between atoms: C_19  and  O_65 
REMARK    8  A    between atoms: C_21  and  O_66 
REMARK    9  A    between atoms: C_22  and  O_67 
REMARK   10  A    between atoms: C_23  and  O_69 
REMARK   11  A    between atoms: C_24  and  O_69 
REMARK   12  A    between atoms: C_24  and  C_26 
REMARK   13  A    between atoms: C_25  and  O_70 
REMARK   14  A    between atoms: C_27  and  O_71 
REMARK   15  A    between atoms: C_28  and  O_72 
REMARK   16  A    between atoms: C_29  and  O_75 
REMARK   17  A    between atoms: C_31  and  O_74 
REMARK   18  A    between atoms: C_31  and  C_40 
REMARK   19  A    between atoms: C_35  and  O_75 
REMARK   20  A    between atoms: C_51  and  O_76 
ROOT
HETATM    1  C   UNN     0     -11.629  25.559  48.487  0.00  0.00     0.180 C 
HETATM    2  C   UNN     0     -12.370  26.416  49.509  0.00  0.00     0.180 C 
HETATM    3  C   UNN     0     -12.250  25.575  47.103  0.00  0.00     0.183 C 
HETATM    4  C   UNN     0     -13.732  25.309  47.242  0.00  0.00     0.204 C 
HETATM    5  C   UNN     0     -14.377  26.288  48.195  0.00  0.00     0.292 C 
HETATM    6  O   UNN     0     -13.767  26.265  49.469  0.00  0.00    -0.348 OA
ENDROOT
BRANCH   5   7
HETATM    7  O   UNN     0     -14.297  27.596  47.675  0.00  0.00    -0.352 OA
BRANCH   7   8
HETATM    8  C   UNN     0     -15.415  28.415  47.871  0.00  0.00     0.135 C 
HETATM    9  C   UNN     0     -15.491  28.904  49.310  0.00  0.00     0.034 C 
HETATM   10  C   UNN     0     -16.856  29.560  49.522  0.00  0.00     0.012 C 
HETATM   11  C   UNN     0     -17.037  30.846  48.680  0.00  0.00    -0.032 C 
HETATM   12  C   UNN     0     -16.470  31.977  49.609  0.00  0.00     0.016 C 
HETATM   13  C   UNN     0     -16.203  30.845  47.356  0.00  0.00     0.007 C 
HETATM   14  C   UNN     0     -18.531  31.251  48.426  0.00  0.00     0.025 C 
HETATM   15  C   UNN     0     -15.384  29.590  46.863  0.00  0.00     0.008 C 
HETATM   16  C   UNN     0     -16.921  31.674  46.274  0.00  0.00     0.007 C 
HETATM   17  C   UNN     0     -13.915  30.068  46.645  0.00  0.00     0.020 C 
HETATM   18  C   UNN     0     -18.324  31.176  45.899  0.00  0.00     0.011 C 
HETATM   19  C   UNN     0     -19.246  30.821  47.104  0.00  0.00    -0.026 C 
HETATM   20  C   UNN     0     -19.250  29.266  47.161  0.00  0.00     0.016 C 
HETATM   21  C   UNN     0     -20.745  31.427  47.008  0.00  0.00     0.002 C 
HETATM   22  C   UNN     0     -21.736  30.273  46.666  0.00  0.00     0.019 C 
HETATM   23  C   UNN     0     -20.984  32.463  45.871  0.00  0.00     0.046 C 
HETATM   24  C   UNN     0     -21.192  32.170  48.324  0.00  0.00     0.091 C 
HETATM   25  C   UNN     0     -22.312  33.235  45.957  0.00  0.00     0.130 C 
HETATM   26  C   UNN     0     -22.610  33.757  47.374  0.00  0.00     0.014 C 
HETATM   27  C   UNN     0     -23.868  34.645  47.461  0.00  0.00     0.015 C 
HETATM   28  C   UNN     0     -21.367  34.444  47.936  0.00  0.00     0.181 C 
HETATM   29  C   UNN     0     -22.680  32.552  48.329  0.00  0.00     0.039 C 
HETATM   30  C   UNN     0     -25.067  33.869  48.016  0.00  0.00     0.010 C 
HETATM   31  C   UNN     0     -24.825  33.360  49.456  0.00  0.00    -0.047 C 
HETATM   32  C   UNN     0     -25.749  32.147  49.707  0.00  0.00     0.015 C 
HETATM   33  C   UNN     0     -25.195  34.456  50.479  0.00  0.00     0.015 C 
HETATM   34  C   UNN     0     -23.343  32.954  49.659  0.00  0.00     0.017 C 
HETATM   35  O   UNN     0     -20.529  33.416  48.403  0.00  0.00    -0.374 OA
HETATM   36  C   UNN     0     -20.750  31.333  49.495  0.00  0.00     0.008 C 
HETATM   37  C   UNN     0     -19.472  30.943  49.567  0.00  0.00    -0.021 C 
BRANCH  15  38
HETATM   38  C   UNN     0     -15.834  29.037  45.490  0.00  0.00     0.176 C 
BRANCH  38  39
HETATM   39  O   UNN     0     -16.324  27.711  45.589  0.00  0.00    -0.400 OA
HETATM   40  H   UNN     0     -16.764  27.473  44.769  0.00  0.00     0.209 HD
ENDBRANCH  38  39
ENDBRANCH  15  38
BRANCH  25  41
HETATM   41  O   UNN     0     -22.243  34.312  45.047  0.00  0.00    -0.395 OA
HETATM   42  H   UNN     0     -22.368  35.137  45.520  0.00  0.00     0.210 HD
ENDBRANCH  25  41
ENDBRANCH   7   8
ENDBRANCH   5   7
BRANCH   4  43
HETATM   43  O   UNN     0     -14.334  25.421  45.976  0.00  0.00    -0.388 OA
HETATM   44  H   UNN     0     -14.907  26.189  45.943  0.00  0.00     0.210 HD
ENDBRANCH   4  43
BRANCH   3  45
HETATM   45  O   UNN     0     -12.041  26.825  46.486  0.00  0.00    -0.390 OA
HETATM   46  H   UNN     0     -12.247  27.538  47.100  0.00  0.00     0.210 HD
ENDBRANCH   3  45
BRANCH   2  47
HETATM   47  C   UNN     0     -11.934  27.881  49.549  0.00  0.00     0.205 C 
BRANCH  47  48
HETATM   48  O   UNN     0     -12.000  28.336  50.881  0.00  0.00    -0.356 OA
BRANCH  48  49
HETATM   49  C   UNN     0     -13.072  29.208  51.156  0.00  0.00     0.291 C 
HETATM   50  C   UNN     0     -13.580  28.967  52.568  0.00  0.00     0.204 C 
HETATM   51  C   UNN     0     -12.926  29.817  53.643  0.00  0.00     0.183 C 
HETATM   52  C   UNN     0     -12.783  31.249  53.156  0.00  0.00     0.187 C 
HETATM   53  C   UNN     0     -12.019  31.257  51.836  0.00  0.00     0.180 C 
HETATM   54  O   UNN     0     -12.706  30.539  50.850  0.00  0.00    -0.348 OA
BRANCH  50  55
HETATM   55  O   UNN     0     -14.976  29.171  52.602  0.00  0.00    -0.388 OA
HETATM   56  H   UNN     0     -15.425  28.452  52.152  0.00  0.00     0.210 HD
ENDBRANCH  50  55
BRANCH  51  57
HETATM   57  O   UNN     0     -11.663  29.301  53.986  0.00  0.00    -0.390 OA
HETATM   58  H   UNN     0     -11.089  30.004  54.300  0.00  0.00     0.210 HD
ENDBRANCH  51  57
BRANCH  52  59
HETATM   59  O   UNN     0     -14.086  31.756  53.041  0.00  0.00    -0.348 OA
BRANCH  59  60
HETATM   60  C   UNN     0     -14.530  32.627  54.058  0.00  0.00     0.292 C 
HETATM   61  C   UNN     0     -15.709  31.941  54.721  0.00  0.00     0.204 C 
HETATM   62  C   UNN     0     -16.410  32.912  55.650  0.00  0.00     0.183 C 
HETATM   63  C   UNN     0     -16.782  34.168  54.890  0.00  0.00     0.178 C 
HETATM   64  C   UNN     0     -15.537  34.745  54.229  0.00  0.00     0.152 C 
HETATM   65  C   UNN     0     -15.864  35.982  53.391  0.00  0.00     0.042 C 
HETATM   66  O   UNN     0     -14.956  33.793  53.381  0.00  0.00    -0.351 OA
BRANCH  61  67
HETATM   67  O   UNN     0     -16.574  31.506  53.695  0.00  0.00    -0.388 OA
HETATM   68  H   UNN     0     -17.120  32.253  53.428  0.00  0.00     0.210 HD
ENDBRANCH  61  67
BRANCH  62  69
HETATM   69  O   UNN     0     -17.568  32.349  56.216  0.00  0.00    -0.390 OA
HETATM   70  H   UNN     0     -17.733  32.805  57.046  0.00  0.00     0.210 HD
ENDBRANCH  62  69
BRANCH  63  71
HETATM   71  O   UNN     0     -17.333  35.082  55.804  0.00  0.00    -0.390 OA
HETATM   72  H   UNN     0     -18.135  35.463  55.442  0.00  0.00     0.210 HD
ENDBRANCH  63  71
ENDBRANCH  59  60
ENDBRANCH  52  59
BRANCH  53  73
HETATM   73  C   UNN     0     -10.534  30.895  51.882  0.00  0.00     0.198 C 
BRANCH  73  74
HETATM   74  O   UNN     0      -9.916  31.515  52.991  0.00  0.00    -0.398 OA
HETATM   75  H   UNN     0      -9.181  30.956  53.264  0.00  0.00     0.209 HD
ENDBRANCH  73  74
ENDBRANCH  53  73
ENDBRANCH  48  49
ENDBRANCH  47  48
ENDBRANCH   2  47
BRANCH   1  76
HETATM   76  O   UNN     0     -11.619  24.223  48.940  0.00  0.00    -0.390 OA
HETATM   77  H   UNN     0     -11.683  24.199  49.897  0.00  0.00     0.210 HD
ENDBRANCH   1  76
TORSDOF 20
ENDMDL
