MODEL 1
REMARK VINA RESULT:      -8.8      0.000      0.000
REMARK  20 active torsions:
REMARK  status: ('A' for Active; 'I' for Inactive)
REMARK    1  A    between atoms: O_1  and  C_32 
REMARK    2  A    between atoms: O_1  and  C_29 
REMARK    3  A    between atoms: O_2  and  C_33 
REMARK    4  A    between atoms: O_2  and  C_31 
REMARK    5  A    between atoms: O_3  and  C_35 
REMARK    6  A    between atoms: O_4  and  C_36 
REMARK    7  A    between atoms: O_6  and  C_40 
REMARK    8  A    between atoms: O_7  and  C_49 
REMARK    9  A    between atoms: O_8  and  C_56 
REMARK   10  A    between atoms: O_8  and  C_37 
REMARK   11  A    between atoms: C_20  and  O_68 
REMARK   12  A    between atoms: C_20  and  C_23 
REMARK   13  A    between atoms: C_22  and  O_69 
REMARK   14  A    between atoms: C_24  and  O_70 
REMARK   15  A    between atoms: C_25  and  O_71 
REMARK   16  A    between atoms: C_26  and  O_72 
REMARK   17  A    between atoms: C_28  and  O_73 
REMARK   18  A    between atoms: C_30  and  O_74 
REMARK   19  A    between atoms: C_32  and  C_34 
REMARK   20  A    between atoms: C_40  and  C_55 
ROOT
HETATM    1  O   UNN     0     -25.047  -6.072  55.277  0.00  0.00    -0.348 OA
HETATM    2  C   UNN     0     -26.466  -4.157  55.852  0.00  0.00     0.187 C 
HETATM    3  C   UNN     0     -25.500  -5.246  56.318  0.00  0.00     0.180 C 
HETATM    4  C   UNN     0     -27.587  -4.725  54.995  0.00  0.00     0.183 C 
HETATM    5  C   UNN     0     -27.032  -5.624  53.910  0.00  0.00     0.204 C 
HETATM    6  C   UNN     0     -26.024  -6.629  54.425  0.00  0.00     0.292 C 
ENDROOT
BRANCH   6   7
HETATM    7  O   UNN     0     -26.665  -7.684  55.110  0.00  0.00    -0.352 OA
BRANCH   7   8
HETATM    8  C   UNN     0     -26.364  -8.978  54.660  0.00  0.00     0.133 C 
HETATM    9  C   UNN     0     -25.500  -9.738  55.667  0.00  0.00     0.034 C 
HETATM   10  C   UNN     0     -25.195 -11.167  55.190  0.00  0.00     0.012 C 
HETATM   11  C   UNN     0     -26.454 -12.020  54.864  0.00  0.00    -0.032 C 
HETATM   12  C   UNN     0     -27.125 -12.390  56.205  0.00  0.00     0.016 C 
HETATM   13  C   UNN     0     -27.340 -11.178  53.897  0.00  0.00     0.005 C 
HETATM   14  C   UNN     0     -26.023 -13.311  54.092  0.00  0.00     0.026 C 
HETATM   15  C   UNN     0     -28.517 -12.007  53.345  0.00  0.00     0.007 C 
HETATM   16  C   UNN     0     -27.685  -9.721  54.336  0.00  0.00    -0.017 C 
HETATM   17  C   UNN     0     -28.041 -13.267  52.600  0.00  0.00     0.011 C 
HETATM   18  C   UNN     0     -27.132 -14.184  53.447  0.00  0.00    -0.025 C 
HETATM   19  C   UNN     0     -28.020 -14.880  54.517  0.00  0.00     0.017 C 
HETATM   20  C   UNN     0     -26.415 -15.293  52.589  0.00  0.00    -0.006 C 
HETATM   21  C   UNN     0     -25.331 -14.740  51.611  0.00  0.00     0.021 C 
HETATM   22  C   UNN     0     -27.401 -16.074  51.692  0.00  0.00     0.047 C 
HETATM   23  C   UNN     0     -25.625 -16.187  53.546  0.00  0.00    -0.046 C 
HETATM   24  C   UNN     0     -26.838 -17.403  51.203  0.00  0.00     0.134 C 
HETATM   25  C   UNN     0     -26.410 -18.313  52.365  0.00  0.00     0.031 C 
HETATM   26  C   UNN     0     -25.559 -19.490  51.816  0.00  0.00     0.020 C 
HETATM   27  C   UNN     0     -25.568 -17.529  53.380  0.00  0.00    -0.059 C 
HETATM   28  C   UNN     0     -24.062 -19.146  51.805  0.00  0.00     0.010 C 
HETATM   29  C   UNN     0     -23.520 -18.937  53.239  0.00  0.00    -0.044 C 
HETATM   30  C   UNN     0     -22.393 -17.882  53.208  0.00  0.00     0.015 C 
HETATM   31  C   UNN     0     -22.938 -20.256  53.791  0.00  0.00     0.015 C 
HETATM   32  C   UNN     0     -24.662 -18.462  54.167  0.00  0.00     0.044 C 
HETATM   33  C   UNN     0     -24.942 -15.551  54.522  0.00  0.00     0.004 C 
HETATM   34  C   UNN     0     -25.064 -14.240  54.798  0.00  0.00    -0.020 C 
HETATM   35  C   UNN     0     -28.679  -9.655  55.515  0.00  0.00     0.018 C 
HETATM   36  C   UNN     0     -28.365  -8.961  53.162  0.00  0.00     0.018 C 
BRANCH  24  37
HETATM   37  O   UNN     0     -27.817 -18.028  50.405  0.00  0.00    -0.394 OA
HETATM   38  H   UNN     0     -27.706 -18.980  50.437  0.00  0.00     0.210 HD
ENDBRANCH  24  37
BRANCH  25  39
HETATM   39  C   UNN     0     -27.644 -18.875  53.105  0.00  0.00     0.180 C 
BRANCH  39  40
HETATM   40  O   UNN     0     -28.137 -20.037  52.469  0.00  0.00    -0.400 OA
HETATM   41  H   UNN     0     -27.566 -20.782  52.661  0.00  0.00     0.209 HD
ENDBRANCH  39  40
ENDBRANCH  25  39
ENDBRANCH   7   8
ENDBRANCH   6   7
BRANCH   5  42
HETATM   42  O   UNN     0     -26.437  -4.835  52.905  0.00  0.00    -0.388 OA
HETATM   43  H   UNN     0     -26.404  -5.320  52.078  0.00  0.00     0.210 HD
ENDBRANCH   5  42
BRANCH   3  44
HETATM   44  C   UNN     0     -25.983  -6.017  57.544  0.00  0.00     0.205 C 
BRANCH  44  45
HETATM   45  O   UNN     0     -26.565  -5.114  58.453  0.00  0.00    -0.356 OA
BRANCH  45  46
HETATM   46  C   UNN     0     -26.897  -5.685  59.698  0.00  0.00     0.291 C 
HETATM   47  C   UNN     0     -25.730  -6.475  60.248  0.00  0.00     0.204 C 
HETATM   48  C   UNN     0     -24.626  -5.612  60.826  0.00  0.00     0.183 C 
HETATM   49  C   UNN     0     -25.186  -4.498  61.691  0.00  0.00     0.180 C 
HETATM   50  C   UNN     0     -26.379  -3.789  61.069  0.00  0.00     0.179 C 
HETATM   51  O   UNN     0     -27.346  -4.675  60.574  0.00  0.00    -0.348 OA
BRANCH  47  52
HETATM   52  O   UNN     0     -26.194  -7.377  61.226  0.00  0.00    -0.388 OA
HETATM   53  H   UNN     0     -25.474  -7.948  61.507  0.00  0.00     0.210 HD
ENDBRANCH  47  52
BRANCH  48  54
HETATM   54  O   UNN     0     -23.872  -5.059  59.773  0.00  0.00    -0.390 OA
HETATM   55  H   UNN     0     -24.437  -4.513  59.221  0.00  0.00     0.210 HD
ENDBRANCH  48  54
BRANCH  49  56
HETATM   56  O   UNN     0     -25.568  -5.031  62.939  0.00  0.00    -0.390 OA
HETATM   57  H   UNN     0     -24.797  -5.410  63.369  0.00  0.00     0.210 HD
ENDBRANCH  49  56
BRANCH  50  58
HETATM   58  C   UNN     0     -26.020  -2.691  60.073  0.00  0.00     0.198 C 
BRANCH  58  59
HETATM   59  O   UNN     0     -27.170  -2.328  59.332  0.00  0.00    -0.398 OA
HETATM   60  H   UNN     0     -27.881  -2.944  59.527  0.00  0.00     0.209 HD
ENDBRANCH  58  59
ENDBRANCH  50  58
ENDBRANCH  45  46
ENDBRANCH  44  45
ENDBRANCH   3  44
BRANCH   4  61
HETATM   61  O   UNN     0     -28.486  -5.450  55.797  0.00  0.00    -0.390 OA
HETATM   62  H   UNN     0     -29.107  -4.852  56.218  0.00  0.00     0.210 HD
ENDBRANCH   4  61
BRANCH   2  63
HETATM   63  O   UNN     0     -25.778  -3.195  55.093  0.00  0.00    -0.348 OA
BRANCH  63  64
HETATM   64  C   UNN     0     -25.809  -1.888  55.626  0.00  0.00     0.292 C 
HETATM   65  C   UNN     0     -24.870  -1.796  56.809  0.00  0.00     0.204 C 
HETATM   66  C   UNN     0     -23.420  -1.846  56.384  0.00  0.00     0.183 C 
HETATM   67  C   UNN     0     -23.176  -0.835  55.285  0.00  0.00     0.178 C 
HETATM   68  C   UNN     0     -24.136  -1.091  54.136  0.00  0.00     0.152 C 
HETATM   69  C   UNN     0     -23.951  -0.075  53.006  0.00  0.00     0.042 C 
HETATM   70  O   UNN     0     -25.464  -1.000  54.580  0.00  0.00    -0.351 OA
BRANCH  65  71
HETATM   71  O   UNN     0     -25.078  -0.585  57.496  0.00  0.00    -0.388 OA
HETATM   72  H   UNN     0     -24.214  -0.223  57.714  0.00  0.00     0.210 HD
ENDBRANCH  65  71
BRANCH  66  73
HETATM   73  O   UNN     0     -22.604  -1.524  57.481  0.00  0.00    -0.390 OA
HETATM   74  H   UNN     0     -21.848  -2.117  57.477  0.00  0.00     0.210 HD
ENDBRANCH  66  73
BRANCH  67  75
HETATM   75  O   UNN     0     -21.839  -0.964  54.869  0.00  0.00    -0.390 OA
HETATM   76  H   UNN     0     -21.302  -0.273  55.264  0.00  0.00     0.210 HD
ENDBRANCH  67  75
ENDBRANCH  63  64
ENDBRANCH   2  63
TORSDOF 20
ENDMDL
MODEL 2
REMARK VINA RESULT:      -8.5      1.185      1.983
REMARK  20 active torsions:
REMARK  status: ('A' for Active; 'I' for Inactive)
REMARK    1  A    between atoms: O_1  and  C_32 
REMARK    2  A    between atoms: O_1  and  C_29 
REMARK    3  A    between atoms: O_2  and  C_33 
REMARK    4  A    between atoms: O_2  and  C_31 
REMARK    5  A    between atoms: O_3  and  C_35 
REMARK    6  A    between atoms: O_4  and  C_36 
REMARK    7  A    between atoms: O_6  and  C_40 
REMARK    8  A    between atoms: O_7  and  C_49 
REMARK    9  A    between atoms: O_8  and  C_56 
REMARK   10  A    between atoms: O_8  and  C_37 
REMARK   11  A    between atoms: C_20  and  O_68 
REMARK   12  A    between atoms: C_20  and  C_23 
REMARK   13  A    between atoms: C_22  and  O_69 
REMARK   14  A    between atoms: C_24  and  O_70 
REMARK   15  A    between atoms: C_25  and  O_71 
REMARK   16  A    between atoms: C_26  and  O_72 
REMARK   17  A    between atoms: C_28  and  O_73 
REMARK   18  A    between atoms: C_30  and  O_74 
REMARK   19  A    between atoms: C_32  and  C_34 
REMARK   20  A    between atoms: C_40  and  C_55 
ROOT
HETATM    1  O   UNN     0     -25.299  -6.626  55.081  0.00  0.00    -0.348 OA
HETATM    2  C   UNN     0     -26.372  -4.536  55.780  0.00  0.00     0.187 C 
HETATM    3  C   UNN     0     -25.570  -5.778  56.167  0.00  0.00     0.180 C 
HETATM    4  C   UNN     0     -27.606  -4.891  54.964  0.00  0.00     0.183 C 
HETATM    5  C   UNN     0     -27.248  -5.826  53.827  0.00  0.00     0.204 C 
HETATM    6  C   UNN     0     -26.388  -6.993  54.263  0.00  0.00     0.292 C 
ENDROOT
BRANCH   6   7
HETATM    7  O   UNN     0     -27.156  -7.959  54.948  0.00  0.00    -0.352 OA
BRANCH   7   8
HETATM    8  C   UNN     0     -27.163  -9.246  54.388  0.00  0.00     0.133 C 
HETATM    9  C   UNN     0     -25.987  -9.449  53.433  0.00  0.00     0.034 C 
HETATM   10  C   UNN     0     -25.973 -10.868  52.842  0.00  0.00     0.012 C 
HETATM   11  C   UNN     0     -25.962 -12.007  53.901  0.00  0.00    -0.032 C 
HETATM   12  C   UNN     0     -24.555 -12.037  54.537  0.00  0.00     0.016 C 
HETATM   13  C   UNN     0     -27.127 -11.719  54.896  0.00  0.00     0.005 C 
HETATM   14  C   UNN     0     -26.277 -13.372  53.203  0.00  0.00     0.026 C 
HETATM   15  C   UNN     0     -27.339 -12.895  55.871  0.00  0.00     0.007 C 
HETATM   16  C   UNN     0     -27.184 -10.294  55.530  0.00  0.00    -0.017 C 
HETATM   17  C   UNN     0     -27.640 -14.212  55.135  0.00  0.00     0.011 C 
HETATM   18  C   UNN     0     -26.565 -14.605  54.099  0.00  0.00    -0.025 C 
HETATM   19  C   UNN     0     -25.300 -15.067  54.875  0.00  0.00     0.017 C 
HETATM   20  C   UNN     0     -27.029 -15.775  53.151  0.00  0.00    -0.006 C 
HETATM   21  C   UNN     0     -28.166 -15.376  52.159  0.00  0.00     0.021 C 
HETATM   22  C   UNN     0     -27.588 -16.982  53.936  0.00  0.00     0.047 C 
HETATM   23  C   UNN     0     -25.854 -16.133  52.240  0.00  0.00    -0.046 C 
HETATM   24  C   UNN     0     -27.627 -18.263  53.111  0.00  0.00     0.134 C 
HETATM   25  C   UNN     0     -26.243 -18.638  52.559  0.00  0.00     0.031 C 
HETATM   26  C   UNN     0     -26.397 -19.742  51.479  0.00  0.00     0.020 C 
HETATM   27  C   UNN     0     -25.568 -17.417  51.921  0.00  0.00    -0.059 C 
HETATM   28  C   UNN     0     -26.565 -19.139  50.076  0.00  0.00     0.010 C 
HETATM   29  C   UNN     0     -25.297 -18.369  49.637  0.00  0.00    -0.044 C 
HETATM   30  C   UNN     0     -25.707 -17.187  48.733  0.00  0.00     0.015 C 
HETATM   31  C   UNN     0     -24.358 -19.293  48.833  0.00  0.00     0.015 C 
HETATM   32  C   UNN     0     -24.545 -17.844  50.882  0.00  0.00     0.044 C 
HETATM   33  C   UNN     0     -25.163 -15.092  51.728  0.00  0.00     0.004 C 
HETATM   34  C   UNN     0     -25.332 -13.813  52.109  0.00  0.00    -0.020 C 
HETATM   35  C   UNN     0     -26.064 -10.037  56.560  0.00  0.00     0.018 C 
HETATM   36  C   UNN     0     -28.523 -10.110  56.300  0.00  0.00     0.018 C 
BRANCH  24  37
HETATM   37  O   UNN     0     -28.144 -19.292  53.921  0.00  0.00    -0.394 OA
HETATM   38  H   UNN     0     -28.612 -18.917  54.669  0.00  0.00     0.210 HD
ENDBRANCH  24  37
BRANCH  25  39
HETATM   39  C   UNN     0     -25.323 -19.152  53.688  0.00  0.00     0.180 C 
BRANCH  39  40
HETATM   40  O   UNN     0     -25.522 -20.532  53.924  0.00  0.00    -0.400 OA
HETATM   41  H   UNN     0     -26.343 -20.817  53.519  0.00  0.00     0.209 HD
ENDBRANCH  39  40
ENDBRANCH  25  39
ENDBRANCH   7   8
ENDBRANCH   6   7
BRANCH   5  42
HETATM   42  O   UNN     0     -26.582  -5.103  52.817  0.00  0.00    -0.388 OA
HETATM   43  H   UNN     0     -25.914  -4.532  53.203  0.00  0.00     0.210 HD
ENDBRANCH   5  42
BRANCH   3  44
HETATM   44  C   UNN     0     -26.114  -6.508  57.393  0.00  0.00     0.205 C 
BRANCH  44  45
HETATM   45  O   UNN     0     -26.606  -5.560  58.309  0.00  0.00    -0.356 OA
BRANCH  45  46
HETATM   46  C   UNN     0     -26.762  -6.055  59.620  0.00  0.00     0.291 C 
HETATM   47  C   UNN     0     -25.426  -6.473  60.191  0.00  0.00     0.204 C 
HETATM   48  C   UNN     0     -24.555  -5.311  60.625  0.00  0.00     0.183 C 
HETATM   49  C   UNN     0     -25.353  -4.278  61.399  0.00  0.00     0.180 C 
HETATM   50  C   UNN     0     -26.696  -3.951  60.765  0.00  0.00     0.179 C 
HETATM   51  O   UNN     0     -27.427  -5.094  60.408  0.00  0.00    -0.348 OA
BRANCH  47  52
HETATM   52  O   UNN     0     -25.633  -7.349  61.276  0.00  0.00    -0.388 OA
HETATM   53  H   UNN     0     -25.952  -8.195  60.953  0.00  0.00     0.210 HD
ENDBRANCH  47  52
BRANCH  48  54
HETATM   54  O   UNN     0     -23.982  -4.711  59.487  0.00  0.00    -0.390 OA
HETATM   55  H   UNN     0     -24.272  -5.172  58.697  0.00  0.00     0.210 HD
ENDBRANCH  48  54
BRANCH  49  56
HETATM   56  O   UNN     0     -25.566  -4.747  62.711  0.00  0.00    -0.390 OA
HETATM   57  H   UNN     0     -26.503  -4.697  62.915  0.00  0.00     0.210 HD
ENDBRANCH  49  56
BRANCH  50  58
HETATM   58  C   UNN     0     -26.639  -2.915  59.648  0.00  0.00     0.198 C 
BRANCH  58  59
HETATM   59  O   UNN     0     -26.159  -1.688  60.163  0.00  0.00    -0.398 OA
HETATM   60  H   UNN     0     -26.062  -1.759  61.115  0.00  0.00     0.209 HD
ENDBRANCH  58  59
ENDBRANCH  50  58
ENDBRANCH  45  46
ENDBRANCH  44  45
ENDBRANCH   3  44
BRANCH   4  61
HETATM   61  O   UNN     0     -28.571  -5.495  55.789  0.00  0.00    -0.390 OA
HETATM   62  H   UNN     0     -28.898  -4.862  56.431  0.00  0.00     0.210 HD
ENDBRANCH   4  61
BRANCH   2  63
HETATM   63  O   UNN     0     -25.577  -3.666  55.016  0.00  0.00    -0.348 OA
BRANCH  63  64
HETATM   64  C   UNN     0     -25.715  -2.298  55.339  0.00  0.00     0.292 C 
HETATM   65  C   UNN     0     -25.375  -2.081  56.798  0.00  0.00     0.204 C 
HETATM   66  C   UNN     0     -23.894  -2.239  57.061  0.00  0.00     0.183 C 
HETATM   67  C   UNN     0     -23.110  -1.394  56.080  0.00  0.00     0.178 C 
HETATM   68  C   UNN     0     -23.498  -1.769  54.661  0.00  0.00     0.152 C 
HETATM   69  C   UNN     0     -22.753  -0.923  53.626  0.00  0.00     0.042 C 
HETATM   70  O   UNN     0     -24.874  -1.573  54.464  0.00  0.00    -0.351 OA
BRANCH  65  71
HETATM   71  O   UNN     0     -25.748  -0.781  57.190  0.00  0.00    -0.388 OA
HETATM   72  H   UNN     0     -26.653  -0.826  57.515  0.00  0.00     0.210 HD
ENDBRANCH  65  71
BRANCH  66  73
HETATM   73  O   UNN     0     -23.607  -1.801  58.364  0.00  0.00    -0.390 OA
HETATM   74  H   UNN     0     -22.739  -1.386  58.357  0.00  0.00     0.210 HD
ENDBRANCH  66  73
BRANCH  67  75
HETATM   75  O   UNN     0     -21.742  -1.625  56.311  0.00  0.00    -0.390 OA
HETATM   76  H   UNN     0     -21.243  -1.488  55.503  0.00  0.00     0.210 HD
ENDBRANCH  67  75
ENDBRANCH  63  64
ENDBRANCH   2  63
TORSDOF 20
ENDMDL
MODEL 3
REMARK VINA RESULT:      -8.1     27.042     34.552
REMARK  20 active torsions:
REMARK  status: ('A' for Active; 'I' for Inactive)
REMARK    1  A    between atoms: O_1  and  C_32 
REMARK    2  A    between atoms: O_1  and  C_29 
REMARK    3  A    between atoms: O_2  and  C_33 
REMARK    4  A    between atoms: O_2  and  C_31 
REMARK    5  A    between atoms: O_3  and  C_35 
REMARK    6  A    between atoms: O_4  and  C_36 
REMARK    7  A    between atoms: O_6  and  C_40 
REMARK    8  A    between atoms: O_7  and  C_49 
REMARK    9  A    between atoms: O_8  and  C_56 
REMARK   10  A    between atoms: O_8  and  C_37 
REMARK   11  A    between atoms: C_20  and  O_68 
REMARK   12  A    between atoms: C_20  and  C_23 
REMARK   13  A    between atoms: C_22  and  O_69 
REMARK   14  A    between atoms: C_24  and  O_70 
REMARK   15  A    between atoms: C_25  and  O_71 
REMARK   16  A    between atoms: C_26  and  O_72 
REMARK   17  A    between atoms: C_28  and  O_73 
REMARK   18  A    between atoms: C_30  and  O_74 
REMARK   19  A    between atoms: C_32  and  C_34 
REMARK   20  A    between atoms: C_40  and  C_55 
ROOT
HETATM    1  O   UNN     0     -23.869  16.740  81.182  0.00  0.00    -0.348 OA
HETATM    2  C   UNN     0     -21.506  17.013  80.590  0.00  0.00     0.187 C 
HETATM    3  C   UNN     0     -22.866  17.662  80.844  0.00  0.00     0.180 C 
HETATM    4  C   UNN     0     -21.608  15.845  79.622  0.00  0.00     0.183 C 
HETATM    5  C   UNN     0     -22.724  14.904  80.029  0.00  0.00     0.204 C 
HETATM    6  C   UNN     0     -24.022  15.618  80.341  0.00  0.00     0.292 C 
ENDROOT
BRANCH   6   7
HETATM    7  O   UNN     0     -24.669  16.031  79.157  0.00  0.00    -0.352 OA
BRANCH   7   8
HETATM    8  C   UNN     0     -25.555  15.104  78.587  0.00  0.00     0.133 C 
HETATM    9  C   UNN     0     -26.912  15.116  79.292  0.00  0.00     0.034 C 
HETATM   10  C   UNN     0     -27.894  14.123  78.650  0.00  0.00     0.012 C 
HETATM   11  C   UNN     0     -28.119  14.332  77.126  0.00  0.00    -0.032 C 
HETATM   12  C   UNN     0     -28.973  15.607  76.952  0.00  0.00     0.016 C 
HETATM   13  C   UNN     0     -26.711  14.390  76.459  0.00  0.00     0.005 C 
HETATM   14  C   UNN     0     -28.861  13.089  76.532  0.00  0.00     0.026 C 
HETATM   15  C   UNN     0     -26.816  14.391  74.921  0.00  0.00     0.007 C 
HETATM   16  C   UNN     0     -25.676  15.387  77.068  0.00  0.00    -0.017 C 
HETATM   17  C   UNN     0     -27.558  13.152  74.389  0.00  0.00     0.011 C 
HETATM   18  C   UNN     0     -28.968  12.967  74.989  0.00  0.00    -0.025 C 
HETATM   19  C   UNN     0     -29.893  14.059  74.382  0.00  0.00     0.017 C 
HETATM   20  C   UNN     0     -29.585  11.552  74.673  0.00  0.00    -0.006 C 
HETATM   21  C   UNN     0     -28.871  10.370  75.401  0.00  0.00     0.021 C 
HETATM   22  C   UNN     0     -29.512  11.200  73.171  0.00  0.00     0.047 C 
HETATM   23  C   UNN     0     -31.007  11.526  75.236  0.00  0.00    -0.046 C 
HETATM   24  C   UNN     0     -30.468  10.081  72.775  0.00  0.00     0.134 C 
HETATM   25  C   UNN     0     -31.926  10.412  73.128  0.00  0.00     0.031 C 
HETATM   26  C   UNN     0     -32.793   9.130  73.006  0.00  0.00     0.020 C 
HETATM   27  C   UNN     0     -32.025  10.938  74.565  0.00  0.00    -0.059 C 
HETATM   28  C   UNN     0     -32.861   8.366  74.337  0.00  0.00     0.010 C 
HETATM   29  C   UNN     0     -33.580   9.195  75.428  0.00  0.00    -0.044 C 
HETATM   30  C   UNN     0     -32.970   8.859  76.806  0.00  0.00     0.015 C 
HETATM   31  C   UNN     0     -35.083   8.848  75.463  0.00  0.00     0.015 C 
HETATM   32  C   UNN     0     -33.416  10.704  75.133  0.00  0.00     0.044 C 
HETATM   33  C   UNN     0     -31.168  12.067  76.463  0.00  0.00     0.004 C 
HETATM   34  C   UNN     0     -30.219  12.765  77.111  0.00  0.00    -0.020 C 
HETATM   35  C   UNN     0     -26.014  16.866  76.790  0.00  0.00     0.018 C 
HETATM   36  C   UNN     0     -24.274  15.144  76.441  0.00  0.00     0.018 C 
BRANCH  24  37
HETATM   37  O   UNN     0     -30.322   9.847  71.393  0.00  0.00    -0.394 OA
HETATM   38  H   UNN     0     -30.756  10.543  70.896  0.00  0.00     0.210 HD
ENDBRANCH  24  37
BRANCH  25  39
HETATM   39  C   UNN     0     -32.485  11.500  72.185  0.00  0.00     0.180 C 
BRANCH  39  40
HETATM   40  O   UNN     0     -32.872  10.951  70.941  0.00  0.00    -0.400 OA
HETATM   41  H   UNN     0     -32.906  11.640  70.276  0.00  0.00     0.209 HD
ENDBRANCH  39  40
ENDBRANCH  25  39
ENDBRANCH   7   8
ENDBRANCH   6   7
BRANCH   5  42
HETATM   42  O   UNN     0     -22.318  14.155  81.153  0.00  0.00    -0.388 OA
HETATM   43  H   UNN     0     -21.840  13.371  80.874  0.00  0.00     0.210 HD
ENDBRANCH   5  42
BRANCH   3  44
HETATM   44  C   UNN     0     -23.287  18.656  79.763  0.00  0.00     0.205 C 
BRANCH  44  45
HETATM   45  O   UNN     0     -22.761  19.923  80.076  0.00  0.00    -0.356 OA
BRANCH  45  46
HETATM   46  C   UNN     0     -23.506  21.000  79.554  0.00  0.00     0.291 C 
HETATM   47  C   UNN     0     -24.869  21.067  80.205  0.00  0.00     0.204 C 
HETATM   48  C   UNN     0     -24.847  21.634  81.611  0.00  0.00     0.183 C 
HETATM   49  C   UNN     0     -23.968  22.867  81.700  0.00  0.00     0.180 C 
HETATM   50  C   UNN     0     -22.636  22.714  80.984  0.00  0.00     0.179 C 
HETATM   51  O   UNN     0     -22.766  22.192  79.689  0.00  0.00    -0.348 OA
BRANCH  47  52
HETATM   52  O   UNN     0     -25.738  21.826  79.396  0.00  0.00    -0.388 OA
HETATM   53  H   UNN     0     -25.594  21.608  78.472  0.00  0.00     0.210 HD
ENDBRANCH  47  52
BRANCH  48  54
HETATM   54  O   UNN     0     -24.372  20.650  82.499  0.00  0.00    -0.390 OA
HETATM   55  H   UNN     0     -25.109  20.139  82.842  0.00  0.00     0.210 HD
ENDBRANCH  48  54
BRANCH  49  56
HETATM   56  O   UNN     0     -24.660  23.967  81.153  0.00  0.00    -0.390 OA
HETATM   57  H   UNN     0     -24.234  24.232  80.334  0.00  0.00     0.210 HD
ENDBRANCH  49  56
BRANCH  50  58
HETATM   58  C   UNN     0     -21.552  22.014  81.796  0.00  0.00     0.198 C 
BRANCH  58  59
HETATM   59  O   UNN     0     -20.458  21.699  80.955  0.00  0.00    -0.398 OA
HETATM   60  H   UNN     0     -19.695  22.219  81.218  0.00  0.00     0.209 HD
ENDBRANCH  58  59
ENDBRANCH  50  58
ENDBRANCH  45  46
ENDBRANCH  44  45
ENDBRANCH   3  44
BRANCH   4  61
HETATM   61  O   UNN     0     -21.842  16.319  78.319  0.00  0.00    -0.390 OA
HETATM   62  H   UNN     0     -21.265  17.062  78.131  0.00  0.00     0.210 HD
ENDBRANCH   4  61
BRANCH   2  63
HETATM   63  O   UNN     0     -20.967  16.536  81.797  0.00  0.00    -0.348 OA
BRANCH  63  64
HETATM   64  C   UNN     0     -19.561  16.623  81.894  0.00  0.00     0.292 C 
HETATM   65  C   UNN     0     -19.133  18.074  81.819  0.00  0.00     0.204 C 
HETATM   66  C   UNN     0     -19.506  18.836  83.070  0.00  0.00     0.183 C 
HETATM   67  C   UNN     0     -19.024  18.082  84.289  0.00  0.00     0.178 C 
HETATM   68  C   UNN     0     -19.587  16.672  84.271  0.00  0.00     0.152 C 
HETATM   69  C   UNN     0     -19.107  15.853  85.471  0.00  0.00     0.042 C 
HETATM   70  O   UNN     0     -19.184  16.000  83.106  0.00  0.00    -0.351 OA
BRANCH  65  71
HETATM   71  O   UNN     0     -17.736  18.155  81.662  0.00  0.00    -0.388 OA
HETATM   72  H   UNN     0     -17.357  17.346  82.018  0.00  0.00     0.210 HD
ENDBRANCH  65  71
BRANCH  66  73
HETATM   73  O   UNN     0     -18.885  20.097  83.045  0.00  0.00    -0.390 OA
HETATM   74  H   UNN     0     -19.553  20.756  82.837  0.00  0.00     0.210 HD
ENDBRANCH  66  73
BRANCH  67  75
HETATM   75  O   UNN     0     -19.453  18.786  85.429  0.00  0.00    -0.390 OA
HETATM   76  H   UNN     0     -20.356  19.087  85.310  0.00  0.00     0.210 HD
ENDBRANCH  67  75
ENDBRANCH  63  64
ENDBRANCH   2  63
TORSDOF 20
ENDMDL
MODEL 4
REMARK VINA RESULT:      -8.0     27.250     34.884
REMARK  20 active torsions:
REMARK  status: ('A' for Active; 'I' for Inactive)
REMARK    1  A    between atoms: O_1  and  C_32 
REMARK    2  A    between atoms: O_1  and  C_29 
REMARK    3  A    between atoms: O_2  and  C_33 
REMARK    4  A    between atoms: O_2  and  C_31 
REMARK    5  A    between atoms: O_3  and  C_35 
REMARK    6  A    between atoms: O_4  and  C_36 
REMARK    7  A    between atoms: O_6  and  C_40 
REMARK    8  A    between atoms: O_7  and  C_49 
REMARK    9  A    between atoms: O_8  and  C_56 
REMARK   10  A    between atoms: O_8  and  C_37 
REMARK   11  A    between atoms: C_20  and  O_68 
REMARK   12  A    between atoms: C_20  and  C_23 
REMARK   13  A    between atoms: C_22  and  O_69 
REMARK   14  A    between atoms: C_24  and  O_70 
REMARK   15  A    between atoms: C_25  and  O_71 
REMARK   16  A    between atoms: C_26  and  O_72 
REMARK   17  A    between atoms: C_28  and  O_73 
REMARK   18  A    between atoms: C_30  and  O_74 
REMARK   19  A    between atoms: C_32  and  C_34 
REMARK   20  A    between atoms: C_40  and  C_55 
ROOT
HETATM    1  O   UNN     0     -22.899  19.028  79.392  0.00  0.00    -0.348 OA
HETATM    2  C   UNN     0     -23.902  20.211  81.290  0.00  0.00     0.187 C 
HETATM    3  C   UNN     0     -22.751  19.364  80.747  0.00  0.00     0.180 C 
HETATM    4  C   UNN     0     -25.256  19.604  80.960  0.00  0.00     0.183 C 
HETATM    5  C   UNN     0     -25.339  19.241  79.492  0.00  0.00     0.204 C 
HETATM    6  C   UNN     0     -24.133  18.471  78.998  0.00  0.00     0.292 C 
ENDROOT
BRANCH   6   7
HETATM    7  O   UNN     0     -24.178  17.129  79.434  0.00  0.00    -0.352 OA
BRANCH   7   8
HETATM    8  C   UNN     0     -25.160  16.324  78.838  0.00  0.00     0.133 C 
HETATM    9  C   UNN     0     -25.254  16.573  77.332  0.00  0.00     0.034 C 
HETATM   10  C   UNN     0     -26.309  15.670  76.672  0.00  0.00     0.012 C 
HETATM   11  C   UNN     0     -26.099  14.149  76.916  0.00  0.00    -0.032 C 
HETATM   12  C   UNN     0     -24.888  13.703  76.068  0.00  0.00     0.016 C 
HETATM   13  C   UNN     0     -25.932  13.951  78.454  0.00  0.00     0.005 C 
HETATM   14  C   UNN     0     -27.386  13.369  76.487  0.00  0.00     0.026 C 
HETATM   15  C   UNN     0     -25.921  12.456  78.832  0.00  0.00     0.007 C 
HETATM   16  C   UNN     0     -24.870  14.839  79.174  0.00  0.00    -0.017 C 
HETATM   17  C   UNN     0     -27.205  11.735  78.382  0.00  0.00     0.011 C 
HETATM   18  C   UNN     0     -27.498  11.870  76.873  0.00  0.00    -0.025 C 
HETATM   19  C   UNN     0     -26.469  10.993  76.106  0.00  0.00     0.017 C 
HETATM   20  C   UNN     0     -28.950  11.395  76.489  0.00  0.00    -0.006 C 
HETATM   21  C   UNN     0     -30.086  12.322  77.025  0.00  0.00     0.021 C 
HETATM   22  C   UNN     0     -29.279   9.994  77.049  0.00  0.00     0.047 C 
HETATM   23  C   UNN     0     -29.086  11.489  74.968  0.00  0.00    -0.046 C 
HETATM   24  C   UNN     0     -30.460   9.334  76.347  0.00  0.00     0.134 C 
HETATM   25  C   UNN     0     -30.240   9.213  74.831  0.00  0.00     0.031 C 
HETATM   26  C   UNN     0     -31.580   8.844  74.140  0.00  0.00     0.020 C 
HETATM   27  C   UNN     0     -29.738  10.543  74.253  0.00  0.00    -0.059 C 
HETATM   28  C   UNN     0     -32.361  10.097  73.718  0.00  0.00     0.010 C 
HETATM   29  C   UNN     0     -31.598  10.902  72.638  0.00  0.00    -0.044 C 
HETATM   30  C   UNN     0     -31.905  12.404  72.813  0.00  0.00     0.015 C 
HETATM   31  C   UNN     0     -32.053  10.472  71.228  0.00  0.00     0.015 C 
HETATM   32  C   UNN     0     -30.078  10.654  72.776  0.00  0.00     0.044 C 
HETATM   33  C   UNN     0     -28.571  12.599  74.395  0.00  0.00     0.004 C 
HETATM   34  C   UNN     0     -27.814  13.501  75.044  0.00  0.00    -0.020 C 
HETATM   35  C   UNN     0     -23.415  14.452  78.833  0.00  0.00     0.018 C 
HETATM   36  C   UNN     0     -25.003  14.681  80.715  0.00  0.00     0.018 C 
BRANCH  24  37
HETATM   37  O   UNN     0     -30.667   8.068  76.931  0.00  0.00    -0.394 OA
HETATM   38  H   UNN     0     -30.188   8.007  77.759  0.00  0.00     0.210 HD
ENDBRANCH  24  37
BRANCH  25  39
HETATM   39  C   UNN     0     -29.184   8.131  74.515  0.00  0.00     0.180 C 
BRANCH  39  40
HETATM   40  O   UNN     0     -29.717   6.831  74.682  0.00  0.00    -0.400 OA
HETATM   41  H   UNN     0     -30.674   6.866  74.657  0.00  0.00     0.209 HD
ENDBRANCH  39  40
ENDBRANCH  25  39
ENDBRANCH   7   8
ENDBRANCH   6   7
BRANCH   5  42
HETATM   42  O   UNN     0     -25.491  20.416  78.727  0.00  0.00    -0.388 OA
HETATM   43  H   UNN     0     -24.652  20.874  78.652  0.00  0.00     0.210 HD
ENDBRANCH   5  42
BRANCH   3  44
HETATM   44  C   UNN     0     -22.384  18.178  81.636  0.00  0.00     0.205 C 
BRANCH  44  45
HETATM   45  O   UNN     0     -21.027  18.279  81.997  0.00  0.00    -0.356 OA
BRANCH  45  46
HETATM   46  C   UNN     0     -20.231  17.206  81.549  0.00  0.00     0.291 C 
HETATM   47  C   UNN     0     -18.893  17.709  81.055  0.00  0.00     0.204 C 
HETATM   48  C   UNN     0     -17.934  18.087  82.166  0.00  0.00     0.183 C 
HETATM   49  C   UNN     0     -17.925  17.048  83.271  0.00  0.00     0.180 C 
HETATM   50  C   UNN     0     -19.315  16.579  83.672  0.00  0.00     0.179 C 
HETATM   51  O   UNN     0     -20.119  16.244  82.573  0.00  0.00    -0.348 OA
BRANCH  47  52
HETATM   52  O   UNN     0     -18.304  16.734  80.225  0.00  0.00    -0.388 OA
HETATM   53  H   UNN     0     -18.656  15.867  80.442  0.00  0.00     0.210 HD
ENDBRANCH  47  52
BRANCH  48  54
HETATM   54  O   UNN     0     -18.309  19.337  82.696  0.00  0.00    -0.390 OA
HETATM   55  H   UNN     0     -19.240  19.324  82.929  0.00  0.00     0.210 HD
ENDBRANCH  48  54
BRANCH  49  56
HETATM   56  O   UNN     0     -17.168  15.935  82.852  0.00  0.00    -0.390 OA
HETATM   57  H   UNN     0     -17.320  15.204  83.456  0.00  0.00     0.210 HD
ENDBRANCH  49  56
BRANCH  50  58
HETATM   58  C   UNN     0     -20.029  17.481  84.673  0.00  0.00     0.198 C 
BRANCH  58  59
HETATM   59  O   UNN     0     -19.073  18.200  85.429  0.00  0.00    -0.398 OA
HETATM   60  H   UNN     0     -19.210  18.026  86.363  0.00  0.00     0.209 HD
ENDBRANCH  58  59
ENDBRANCH  50  58
ENDBRANCH  45  46
ENDBRANCH  44  45
ENDBRANCH   3  44
BRANCH   4  61
HETATM   61  O   UNN     0     -25.473  18.457  81.743  0.00  0.00    -0.390 OA
HETATM   62  H   UNN     0     -26.202  18.606  82.350  0.00  0.00     0.210 HD
ENDBRANCH   4  61
BRANCH   2  63
HETATM   63  O   UNN     0     -23.853  21.502  80.738  0.00  0.00    -0.348 OA
BRANCH  63  64
HETATM   64  C   UNN     0     -24.241  22.538  81.617  0.00  0.00     0.292 C 
HETATM   65  C   UNN     0     -23.471  23.800  81.291  0.00  0.00     0.204 C 
HETATM   66  C   UNN     0     -23.920  24.413  79.985  0.00  0.00     0.183 C 
HETATM   67  C   UNN     0     -25.427  24.557  79.982  0.00  0.00     0.178 C 
HETATM   68  C   UNN     0     -26.067  23.206  80.248  0.00  0.00     0.152 C 
HETATM   69  C   UNN     0     -27.594  23.299  80.284  0.00  0.00     0.042 C 
HETATM   70  O   UNN     0     -25.640  22.698  81.485  0.00  0.00    -0.351 OA
BRANCH  65  71
HETATM   71  O   UNN     0     -23.660  24.755  82.308  0.00  0.00    -0.388 OA
HETATM   72  H   UNN     0     -23.679  25.621  81.891  0.00  0.00     0.210 HD
ENDBRANCH  65  71
BRANCH  66  73
HETATM   73  O   UNN     0     -23.346  25.689  79.852  0.00  0.00    -0.390 OA
HETATM   74  H   UNN     0     -23.277  25.891  78.915  0.00  0.00     0.210 HD
ENDBRANCH  66  73
BRANCH  67  75
HETATM   75  O   UNN     0     -25.809  25.063  78.727  0.00  0.00    -0.390 OA
HETATM   76  H   UNN     0     -25.036  25.363  78.243  0.00  0.00     0.210 HD
ENDBRANCH  67  75
ENDBRANCH  63  64
ENDBRANCH   2  63
TORSDOF 20
ENDMDL
MODEL 5
REMARK VINA RESULT:      -7.8      5.658     15.669
REMARK  20 active torsions:
REMARK  status: ('A' for Active; 'I' for Inactive)
REMARK    1  A    between atoms: O_1  and  C_32 
REMARK    2  A    between atoms: O_1  and  C_29 
REMARK    3  A    between atoms: O_2  and  C_33 
REMARK    4  A    between atoms: O_2  and  C_31 
REMARK    5  A    between atoms: O_3  and  C_35 
REMARK    6  A    between atoms: O_4  and  C_36 
REMARK    7  A    between atoms: O_6  and  C_40 
REMARK    8  A    between atoms: O_7  and  C_49 
REMARK    9  A    between atoms: O_8  and  C_56 
REMARK   10  A    between atoms: O_8  and  C_37 
REMARK   11  A    between atoms: C_20  and  O_68 
REMARK   12  A    between atoms: C_20  and  C_23 
REMARK   13  A    between atoms: C_22  and  O_69 
REMARK   14  A    between atoms: C_24  and  O_70 
REMARK   15  A    between atoms: C_25  and  O_71 
REMARK   16  A    between atoms: C_26  and  O_72 
REMARK   17  A    between atoms: C_28  and  O_73 
REMARK   18  A    between atoms: C_30  and  O_74 
REMARK   19  A    between atoms: C_32  and  C_34 
REMARK   20  A    between atoms: C_40  and  C_55 
ROOT
HETATM    1  O   UNN     0     -23.020  -3.780  57.399  0.00  0.00    -0.348 OA
HETATM    2  C   UNN     0     -25.283  -4.131  58.275  0.00  0.00     0.187 C 
HETATM    3  C   UNN     0     -24.209  -4.513  57.256  0.00  0.00     0.180 C 
HETATM    4  C   UNN     0     -25.500  -2.627  58.331  0.00  0.00     0.183 C 
HETATM    5  C   UNN     0     -24.179  -1.897  58.459  0.00  0.00     0.204 C 
HETATM    6  C   UNN     0     -23.134  -2.376  57.473  0.00  0.00     0.292 C 
ENDROOT
BRANCH   6   7
HETATM    7  O   UNN     0     -23.397  -1.880  56.178  0.00  0.00    -0.352 OA
BRANCH   7   8
HETATM    8  C   UNN     0     -22.794  -0.653  55.859  0.00  0.00     0.133 C 
HETATM    9  C   UNN     0     -21.293  -0.810  55.614  0.00  0.00     0.034 C 
HETATM   10  C   UNN     0     -20.637   0.527  55.233  0.00  0.00     0.012 C 
HETATM   11  C   UNN     0     -21.275   1.231  54.003  0.00  0.00    -0.032 C 
HETATM   12  C   UNN     0     -20.862   0.436  52.745  0.00  0.00     0.016 C 
HETATM   13  C   UNN     0     -22.811   1.302  54.261  0.00  0.00     0.005 C 
HETATM   14  C   UNN     0     -20.753   2.704  53.916  0.00  0.00     0.026 C 
HETATM   15  C   UNN     0     -23.522   2.164  53.198  0.00  0.00     0.007 C 
HETATM   16  C   UNN     0     -23.529  -0.030  54.644  0.00  0.00    -0.017 C 
HETATM   17  C   UNN     0     -22.968   3.598  53.149  0.00  0.00     0.011 C 
HETATM   18  C   UNN     0     -21.444   3.670  52.917  0.00  0.00    -0.025 C 
HETATM   19  C   UNN     0     -21.166   3.273  51.439  0.00  0.00     0.017 C 
HETATM   20  C   UNN     0     -20.853   5.107  53.171  0.00  0.00    -0.006 C 
HETATM   21  C   UNN     0     -20.876   5.549  54.669  0.00  0.00     0.021 C 
HETATM   22  C   UNN     0     -21.635   6.207  52.419  0.00  0.00     0.047 C 
HETATM   23  C   UNN     0     -19.365   5.071  52.821  0.00  0.00    -0.046 C 
HETATM   24  C   UNN     0     -20.853   7.508  52.283  0.00  0.00     0.134 C 
HETATM   25  C   UNN     0     -19.502   7.300  51.579  0.00  0.00     0.031 C 
HETATM   26  C   UNN     0     -18.624   8.568  51.758  0.00  0.00     0.020 C 
HETATM   27  C   UNN     0     -18.761   6.099  52.180  0.00  0.00    -0.059 C 
HETATM   28  C   UNN     0     -17.749   8.474  53.017  0.00  0.00     0.010 C 
HETATM   29  C   UNN     0     -16.718   7.324  52.904  0.00  0.00    -0.044 C 
HETATM   30  C   UNN     0     -16.457   6.736  54.307  0.00  0.00     0.015 C 
HETATM   31  C   UNN     0     -15.383   7.854  52.341  0.00  0.00     0.015 C 
HETATM   32  C   UNN     0     -17.262   6.224  51.963  0.00  0.00     0.044 C 
HETATM   33  C   UNN     0     -18.684   3.984  53.243  0.00  0.00     0.004 C 
HETATM   34  C   UNN     0     -19.260   2.891  53.773  0.00  0.00    -0.020 C 
HETATM   35  C   UNN     0     -23.638  -1.027  53.472  0.00  0.00     0.018 C 
HETATM   36  C   UNN     0     -24.989   0.266  55.091  0.00  0.00     0.018 C 
BRANCH  24  37
HETATM   37  O   UNN     0     -21.653   8.430  51.581  0.00  0.00    -0.394 OA
HETATM   38  H   UNN     0     -22.119   8.996  52.199  0.00  0.00     0.210 HD
ENDBRANCH  24  37
BRANCH  25  39
HETATM   39  C   UNN     0     -19.706   7.027  50.073  0.00  0.00     0.180 C 
BRANCH  39  40
HETATM   40  O   UNN     0     -19.082   8.020  49.282  0.00  0.00    -0.400 OA
HETATM   41  H   UNN     0     -18.403   7.623  48.735  0.00  0.00     0.209 HD
ENDBRANCH  39  40
ENDBRANCH  25  39
ENDBRANCH   7   8
ENDBRANCH   6   7
BRANCH   5  42
HETATM   42  O   UNN     0     -23.687  -2.044  59.772  0.00  0.00    -0.388 OA
HETATM   43  H   UNN     0     -23.628  -1.189  60.202  0.00  0.00     0.210 HD
ENDBRANCH   5  42
BRANCH   3  44
HETATM   44  C   UNN     0     -24.718  -4.580  55.818  0.00  0.00     0.205 C 
BRANCH  44  45
HETATM   45  O   UNN     0     -24.958  -5.925  55.479  0.00  0.00    -0.356 OA
BRANCH  45  46
HETATM   46  C   UNN     0     -26.223  -6.401  55.878  0.00  0.00     0.291 C 
HETATM   47  C   UNN     0     -27.321  -5.534  55.305  0.00  0.00     0.204 C 
HETATM   48  C   UNN     0     -27.585  -5.774  53.832  0.00  0.00     0.183 C 
HETATM   49  C   UNN     0     -27.624  -7.256  53.509  0.00  0.00     0.180 C 
HETATM   50  C   UNN     0     -26.501  -8.048  54.160  0.00  0.00     0.179 C 
HETATM   51  O   UNN     0     -26.346  -7.760  55.524  0.00  0.00    -0.348 OA
BRANCH  47  52
HETATM   52  O   UNN     0     -28.506  -5.731  56.042  0.00  0.00    -0.388 OA
HETATM   53  H   UNN     0     -28.413  -5.343  56.916  0.00  0.00     0.210 HD
ENDBRANCH  47  52
BRANCH  48  54
HETATM   54  O   UNN     0     -26.574  -5.152  53.074  0.00  0.00    -0.390 OA
HETATM   55  H   UNN     0     -25.866  -5.776  52.903  0.00  0.00     0.210 HD
ENDBRANCH  48  54
BRANCH  49  56
HETATM   56  O   UNN     0     -28.862  -7.787  53.926  0.00  0.00    -0.390 OA
HETATM   57  H   UNN     0     -29.326  -7.129  54.450  0.00  0.00     0.210 HD
ENDBRANCH  49  56
BRANCH  50  58
HETATM   58  C   UNN     0     -25.180  -8.026  53.399  0.00  0.00     0.198 C 
BRANCH  58  59
HETATM   59  O   UNN     0     -25.392  -8.456  52.067  0.00  0.00    -0.398 OA
HETATM   60  H   UNN     0     -25.001  -7.822  51.462  0.00  0.00     0.209 HD
ENDBRANCH  58  59
ENDBRANCH  50  58
ENDBRANCH  45  46
ENDBRANCH  44  45
ENDBRANCH   3  44
BRANCH   4  61
HETATM   61  O   UNN     0     -26.169  -2.194  57.173  0.00  0.00    -0.390 OA
HETATM   62  H   UNN     0     -26.170  -1.235  57.132  0.00  0.00     0.210 HD
ENDBRANCH   4  61
BRANCH   2  63
HETATM   63  O   UNN     0     -24.909  -4.568  59.557  0.00  0.00    -0.348 OA
BRANCH  63  64
HETATM   64  C   UNN     0     -25.971  -4.673  60.481  0.00  0.00     0.292 C 
HETATM   65  C   UNN     0     -27.233  -5.104  59.763  0.00  0.00     0.204 C 
HETATM   66  C   UNN     0     -27.162  -6.546  59.315  0.00  0.00     0.183 C 
HETATM   67  C   UNN     0     -26.750  -7.421  60.479  0.00  0.00     0.178 C 
HETATM   68  C   UNN     0     -25.437  -6.918  61.054  0.00  0.00     0.152 C 
HETATM   69  C   UNN     0     -24.987  -7.752  62.255  0.00  0.00     0.042 C 
HETATM   70  O   UNN     0     -25.569  -5.588  61.481  0.00  0.00    -0.351 OA
BRANCH  65  71
HETATM   71  O   UNN     0     -28.343  -4.968  60.618  0.00  0.00    -0.388 OA
HETATM   72  H   UNN     0     -28.250  -4.131  61.082  0.00  0.00     0.210 HD
ENDBRANCH  65  71
BRANCH  66  73
HETATM   73  O   UNN     0     -28.431  -6.955  58.871  0.00  0.00    -0.390 OA
HETATM   74  H   UNN     0     -29.058  -6.252  59.064  0.00  0.00     0.210 HD
ENDBRANCH  66  73
BRANCH  67  75
HETATM   75  O   UNN     0     -26.627  -8.739  60.005  0.00  0.00    -0.390 OA
HETATM   76  H   UNN     0     -26.610  -8.744  59.045  0.00  0.00     0.210 HD
ENDBRANCH  67  75
ENDBRANCH  63  64
ENDBRANCH   2  63
TORSDOF 20
ENDMDL
MODEL 6
REMARK VINA RESULT:      -7.5      3.602      4.739
REMARK  20 active torsions:
REMARK  status: ('A' for Active; 'I' for Inactive)
REMARK    1  A    between atoms: O_1  and  C_32 
REMARK    2  A    between atoms: O_1  and  C_29 
REMARK    3  A    between atoms: O_2  and  C_33 
REMARK    4  A    between atoms: O_2  and  C_31 
REMARK    5  A    between atoms: O_3  and  C_35 
REMARK    6  A    between atoms: O_4  and  C_36 
REMARK    7  A    between atoms: O_6  and  C_40 
REMARK    8  A    between atoms: O_7  and  C_49 
REMARK    9  A    between atoms: O_8  and  C_56 
REMARK   10  A    between atoms: O_8  and  C_37 
REMARK   11  A    between atoms: C_20  and  O_68 
REMARK   12  A    between atoms: C_20  and  C_23 
REMARK   13  A    between atoms: C_22  and  O_69 
REMARK   14  A    between atoms: C_24  and  O_70 
REMARK   15  A    between atoms: C_25  and  O_71 
REMARK   16  A    between atoms: C_26  and  O_72 
REMARK   17  A    between atoms: C_28  and  O_73 
REMARK   18  A    between atoms: C_30  and  O_74 
REMARK   19  A    between atoms: C_32  and  C_34 
REMARK   20  A    between atoms: C_40  and  C_55 
ROOT
HETATM    1  O   UNN     0     -24.418  -6.491  54.386  0.00  0.00    -0.348 OA
HETATM    2  C   UNN     0     -26.031  -5.372  55.854  0.00  0.00     0.187 C 
HETATM    3  C   UNN     0     -24.859  -6.343  55.711  0.00  0.00     0.180 C 
HETATM    4  C   UNN     0     -27.150  -5.686  54.873  0.00  0.00     0.183 C 
HETATM    5  C   UNN     0     -26.603  -5.859  53.471  0.00  0.00     0.204 C 
HETATM    6  C   UNN     0     -25.396  -6.771  53.409  0.00  0.00     0.292 C 
ENDROOT
BRANCH   6   7
HETATM    7  O   UNN     0     -25.778  -8.124  53.533  0.00  0.00    -0.352 OA
BRANCH   7   8
HETATM    8  C   UNN     0     -25.405  -8.965  52.474  0.00  0.00     0.133 C 
HETATM    9  C   UNN     0     -23.895  -8.931  52.234  0.00  0.00     0.034 C 
HETATM   10  C   UNN     0     -23.480  -9.876  51.094  0.00  0.00     0.012 C 
HETATM   11  C   UNN     0     -23.924 -11.353  51.287  0.00  0.00    -0.032 C 
HETATM   12  C   UNN     0     -23.037 -11.965  52.394  0.00  0.00     0.016 C 
HETATM   13  C   UNN     0     -25.450 -11.335  51.605  0.00  0.00     0.005 C 
HETATM   14  C   UNN     0     -23.740 -12.133  49.943  0.00  0.00     0.026 C 
HETATM   15  C   UNN     0     -26.041 -12.760  51.614  0.00  0.00     0.007 C 
HETATM   16  C   UNN     0     -25.926 -10.398  52.758  0.00  0.00    -0.017 C 
HETATM   17  C   UNN     0     -25.829 -13.484  50.273  0.00  0.00     0.011 C 
HETATM   18  C   UNN     0     -24.352 -13.555  49.831  0.00  0.00    -0.025 C 
HETATM   19  C   UNN     0     -23.625 -14.574  50.753  0.00  0.00     0.017 C 
HETATM   20  C   UNN     0     -24.183 -14.020  48.336  0.00  0.00    -0.006 C 
HETATM   21  C   UNN     0     -24.685 -12.980  47.285  0.00  0.00     0.021 C 
HETATM   22  C   UNN     0     -24.973 -15.312  48.028  0.00  0.00     0.047 C 
HETATM   23  C   UNN     0     -22.686 -14.140  48.048  0.00  0.00    -0.046 C 
HETATM   24  C   UNN     0     -24.493 -16.017  46.764  0.00  0.00     0.134 C 
HETATM   25  C   UNN     0     -22.997 -16.362  46.826  0.00  0.00     0.031 C 
HETATM   26  C   UNN     0     -22.501 -16.772  45.414  0.00  0.00     0.020 C 
HETATM   27  C   UNN     0     -22.185 -15.151  47.301  0.00  0.00    -0.059 C 
HETATM   28  C   UNN     0     -21.977 -15.561  44.627  0.00  0.00     0.010 C 
HETATM   29  C   UNN     0     -20.722 -14.952  45.296  0.00  0.00    -0.044 C 
HETATM   30  C   UNN     0     -20.703 -13.428  45.049  0.00  0.00     0.015 C 
HETATM   31  C   UNN     0     -19.441 -15.561  44.689  0.00  0.00     0.015 C 
HETATM   32  C   UNN     0     -20.747 -15.239  46.816  0.00  0.00     0.044 C 
HETATM   33  C   UNN     0     -21.909 -13.146  48.531  0.00  0.00     0.004 C 
HETATM   34  C   UNN     0     -22.342 -12.192  49.374  0.00  0.00    -0.020 C 
HETATM   35  C   UNN     0     -25.506 -10.888  54.159  0.00  0.00     0.018 C 
HETATM   36  C   UNN     0     -27.479 -10.327  52.777  0.00  0.00     0.018 C 
BRANCH  24  37
HETATM   37  O   UNN     0     -25.273 -17.176  46.585  0.00  0.00    -0.394 OA
HETATM   38  H   UNN     0     -25.987 -17.192  47.225  0.00  0.00     0.210 HD
ENDBRANCH  24  37
BRANCH  25  39
HETATM   39  C   UNN     0     -22.743 -17.521  47.815  0.00  0.00     0.180 C 
BRANCH  39  40
HETATM   40  O   UNN     0     -22.894 -18.777  47.182  0.00  0.00    -0.400 OA
HETATM   41  H   UNN     0     -22.530 -18.743  46.297  0.00  0.00     0.209 HD
ENDBRANCH  39  40
ENDBRANCH  25  39
ENDBRANCH   7   8
ENDBRANCH   6   7
BRANCH   5  42
HETATM   42  O   UNN     0     -26.265  -4.597  52.941  0.00  0.00    -0.388 OA
HETATM   43  H   UNN     0     -26.025  -4.679  52.016  0.00  0.00     0.210 HD
ENDBRANCH   5  42
BRANCH   3  44
HETATM   44  C   UNN     0     -25.063  -7.669  56.440  0.00  0.00     0.205 C 
BRANCH  44  45
HETATM   45  O   UNN     0     -25.828  -7.441  57.599  0.00  0.00    -0.356 OA
BRANCH  45  46
HETATM   46  C   UNN     0     -25.074  -7.018  58.712  0.00  0.00     0.291 C 
HETATM   47  C   UNN     0     -25.809  -5.937  59.471  0.00  0.00     0.204 C 
HETATM   48  C   UNN     0     -26.955  -6.454  60.317  0.00  0.00     0.183 C 
HETATM   49  C   UNN     0     -26.559  -7.701  61.086  0.00  0.00     0.180 C 
HETATM   50  C   UNN     0     -25.793  -8.712  60.247  0.00  0.00     0.179 C 
HETATM   51  O   UNN     0     -24.749  -8.134  59.510  0.00  0.00    -0.348 OA
BRANCH  47  52
HETATM   52  O   UNN     0     -24.897  -5.229  60.280  0.00  0.00    -0.388 OA
HETATM   53  H   UNN     0     -24.811  -5.667  61.130  0.00  0.00     0.210 HD
ENDBRANCH  47  52
BRANCH  48  54
HETATM   54  O   UNN     0     -28.053  -6.741  59.484  0.00  0.00    -0.390 OA
HETATM   55  H   UNN     0     -27.964  -7.626  59.124  0.00  0.00     0.210 HD
ENDBRANCH  48  54
BRANCH  49  56
HETATM   56  O   UNN     0     -25.769  -7.329  62.193  0.00  0.00    -0.390 OA
HETATM   57  H   UNN     0     -25.874  -6.388  62.353  0.00  0.00     0.210 HD
ENDBRANCH  49  56
BRANCH  50  58
HETATM   58  C   UNN     0     -26.667  -9.637  59.407  0.00  0.00     0.198 C 
BRANCH  58  59
HETATM   59  O   UNN     0     -27.997  -9.599  59.888  0.00  0.00    -0.398 OA
HETATM   60  H   UNN     0     -28.459  -8.859  59.487  0.00  0.00     0.209 HD
ENDBRANCH  58  59
ENDBRANCH  50  58
ENDBRANCH  45  46
ENDBRANCH  44  45
ENDBRANCH   3  44
BRANCH   4  61
HETATM   61  O   UNN     0     -27.820  -6.858  55.267  0.00  0.00    -0.390 OA
HETATM   62  H   UNN     0     -28.602  -6.635  55.777  0.00  0.00     0.210 HD
ENDBRANCH   4  61
BRANCH   2  63
HETATM   63  O   UNN     0     -25.599  -4.056  55.619  0.00  0.00    -0.348 OA
BRANCH  63  64
HETATM   64  C   UNN     0     -26.563  -3.059  55.884  0.00  0.00     0.292 C 
HETATM   65  C   UNN     0     -26.338  -2.484  57.266  0.00  0.00     0.204 C 
HETATM   66  C   UNN     0     -25.091  -1.632  57.326  0.00  0.00     0.183 C 
HETATM   67  C   UNN     0     -25.112  -0.620  56.201  0.00  0.00     0.178 C 
HETATM   68  C   UNN     0     -25.269  -1.340  54.872  0.00  0.00     0.152 C 
HETATM   69  C   UNN     0     -25.324  -0.359  53.699  0.00  0.00     0.042 C 
HETATM   70  O   UNN     0     -26.456  -2.089  54.861  0.00  0.00    -0.351 OA
BRANCH  65  71
HETATM   71  O   UNN     0     -27.432  -1.679  57.636  0.00  0.00    -0.388 OA
HETATM   72  H   UNN     0     -28.232  -2.195  57.495  0.00  0.00     0.210 HD
ENDBRANCH  65  71
BRANCH  66  73
HETATM   73  O   UNN     0     -25.060  -0.943  58.550  0.00  0.00    -0.390 OA
HETATM   74  H   UNN     0     -24.909  -0.011  58.367  0.00  0.00     0.210 HD
ENDBRANCH  66  73
BRANCH  67  75
HETATM   75  O   UNN     0     -23.905   0.102  56.248  0.00  0.00    -0.390 OA
HETATM   76  H   UNN     0     -23.608   0.306  55.359  0.00  0.00     0.210 HD
ENDBRANCH  67  75
ENDBRANCH  63  64
ENDBRANCH   2  63
TORSDOF 20
ENDMDL
MODEL 7
REMARK VINA RESULT:      -7.5      5.913     15.294
REMARK  20 active torsions:
REMARK  status: ('A' for Active; 'I' for Inactive)
REMARK    1  A    between atoms: O_1  and  C_32 
REMARK    2  A    between atoms: O_1  and  C_29 
REMARK    3  A    between atoms: O_2  and  C_33 
REMARK    4  A    between atoms: O_2  and  C_31 
REMARK    5  A    between atoms: O_3  and  C_35 
REMARK    6  A    between atoms: O_4  and  C_36 
REMARK    7  A    between atoms: O_6  and  C_40 
REMARK    8  A    between atoms: O_7  and  C_49 
REMARK    9  A    between atoms: O_8  and  C_56 
REMARK   10  A    between atoms: O_8  and  C_37 
REMARK   11  A    between atoms: C_20  and  O_68 
REMARK   12  A    between atoms: C_20  and  C_23 
REMARK   13  A    between atoms: C_22  and  O_69 
REMARK   14  A    between atoms: C_24  and  O_70 
REMARK   15  A    between atoms: C_25  and  O_71 
REMARK   16  A    between atoms: C_26  and  O_72 
REMARK   17  A    between atoms: C_28  and  O_73 
REMARK   18  A    between atoms: C_30  and  O_74 
REMARK   19  A    between atoms: C_32  and  C_34 
REMARK   20  A    between atoms: C_40  and  C_55 
ROOT
HETATM    1  O   UNN     0     -22.939  -4.470  58.037  0.00  0.00    -0.348 OA
HETATM    2  C   UNN     0     -25.094  -5.011  59.072  0.00  0.00     0.187 C 
HETATM    3  C   UNN     0     -24.076  -5.290  57.966  0.00  0.00     0.180 C 
HETATM    4  C   UNN     0     -25.420  -3.530  59.181  0.00  0.00     0.183 C 
HETATM    5  C   UNN     0     -24.152  -2.702  59.227  0.00  0.00     0.204 C 
HETATM    6  C   UNN     0     -23.153  -3.080  58.154  0.00  0.00     0.292 C 
ENDROOT
BRANCH   6   7
HETATM    7  O   UNN     0     -23.551  -2.581  56.895  0.00  0.00    -0.352 OA
BRANCH   7   8
HETATM    8  C   UNN     0     -23.040  -1.322  56.546  0.00  0.00     0.133 C 
HETATM    9  C   UNN     0     -21.536  -1.380  56.278  0.00  0.00     0.034 C 
HETATM   10  C   UNN     0     -20.978  -0.008  55.865  0.00  0.00     0.012 C 
HETATM   11  C   UNN     0     -21.683   0.629  54.634  0.00  0.00    -0.032 C 
HETATM   12  C   UNN     0     -21.236  -0.158  53.383  0.00  0.00     0.016 C 
HETATM   13  C   UNN     0     -23.216   0.599  54.917  0.00  0.00     0.005 C 
HETATM   14  C   UNN     0     -21.265   2.132  54.515  0.00  0.00     0.026 C 
HETATM   15  C   UNN     0     -24.001   1.391  53.852  0.00  0.00     0.007 C 
HETATM   16  C   UNN     0     -23.834  -0.772  55.334  0.00  0.00    -0.017 C 
HETATM   17  C   UNN     0     -23.548   2.859  53.771  0.00  0.00     0.011 C 
HETATM   18  C   UNN     0     -22.036   3.031  53.511  0.00  0.00    -0.025 C 
HETATM   19  C   UNN     0     -21.755   2.629  52.036  0.00  0.00     0.017 C 
HETATM   20  C   UNN     0     -21.542   4.510  53.733  0.00  0.00    -0.006 C 
HETATM   21  C   UNN     0     -21.572   4.975  55.223  0.00  0.00     0.021 C 
HETATM   22  C   UNN     0     -22.409   5.540  52.975  0.00  0.00     0.047 C 
HETATM   23  C   UNN     0     -20.060   4.570  53.358  0.00  0.00    -0.046 C 
HETATM   24  C   UNN     0     -21.721   6.889  52.805  0.00  0.00     0.134 C 
HETATM   25  C   UNN     0     -20.371   6.762  52.082  0.00  0.00     0.031 C 
HETATM   26  C   UNN     0     -19.579   8.090  52.226  0.00  0.00     0.020 C 
HETATM   27  C   UNN     0     -19.539   5.626  52.690  0.00  0.00    -0.059 C 
HETATM   28  C   UNN     0     -18.680   8.078  53.471  0.00  0.00     0.010 C 
HETATM   29  C   UNN     0     -17.575   7.000  53.360  0.00  0.00    -0.044 C 
HETATM   30  C   UNN     0     -17.252   6.456  54.768  0.00  0.00     0.015 C 
HETATM   31  C   UNN     0     -16.287   7.611  52.766  0.00  0.00     0.015 C 
HETATM   32  C   UNN     0     -18.055   5.849  52.446  0.00  0.00     0.044 C 
HETATM   33  C   UNN     0     -19.300   3.540  53.786  0.00  0.00     0.004 C 
HETATM   34  C   UNN     0     -19.791   2.419  54.344  0.00  0.00    -0.020 C 
HETATM   35  C   UNN     0     -23.893  -1.795  54.180  0.00  0.00     0.018 C 
HETATM   36  C   UNN     0     -25.304  -0.570  55.800  0.00  0.00     0.018 C 
BRANCH  24  37
HETATM   37  O   UNN     0     -22.593   7.742  52.102  0.00  0.00    -0.394 OA
HETATM   38  H   UNN     0     -22.105   8.484  51.741  0.00  0.00     0.210 HD
ENDBRANCH  24  37
BRANCH  25  39
HETATM   39  C   UNN     0     -20.578   6.449  50.584  0.00  0.00     0.180 C 
BRANCH  39  40
HETATM   40  O   UNN     0     -20.704   7.636  49.825  0.00  0.00    -0.400 OA
HETATM   41  H   UNN     0     -19.850   7.890  49.473  0.00  0.00     0.209 HD
ENDBRANCH  39  40
ENDBRANCH  25  39
ENDBRANCH   7   8
ENDBRANCH   6   7
BRANCH   5  42
HETATM   42  O   UNN     0     -23.551  -2.835  60.495  0.00  0.00    -0.388 OA
HETATM   43  H   UNN     0     -23.525  -1.986  60.941  0.00  0.00     0.210 HD
ENDBRANCH   5  42
BRANCH   3  44
HETATM   44  C   UNN     0     -24.688  -5.369  56.569  0.00  0.00     0.205 C 
BRANCH  44  45
HETATM   45  O   UNN     0     -25.970  -5.942  56.662  0.00  0.00    -0.356 OA
BRANCH  45  46
HETATM   46  C   UNN     0     -26.843  -5.570  55.620  0.00  0.00     0.291 C 
HETATM   47  C   UNN     0     -26.319  -6.060  54.289  0.00  0.00     0.204 C 
HETATM   48  C   UNN     0     -26.520  -7.545  54.062  0.00  0.00     0.183 C 
HETATM   49  C   UNN     0     -27.913  -7.987  54.469  0.00  0.00     0.180 C 
HETATM   50  C   UNN     0     -28.364  -7.412  55.804  0.00  0.00     0.179 C 
HETATM   51  O   UNN     0     -28.143  -6.031  55.909  0.00  0.00    -0.348 OA
BRANCH  47  52
HETATM   52  O   UNN     0     -26.927  -5.330  53.248  0.00  0.00    -0.388 OA
HETATM   53  H   UNN     0     -26.517  -4.464  53.177  0.00  0.00     0.210 HD
ENDBRANCH  47  52
BRANCH  48  54
HETATM   54  O   UNN     0     -25.561  -8.261  54.804  0.00  0.00    -0.390 OA
HETATM   55  H   UNN     0     -25.256  -9.016  54.297  0.00  0.00     0.210 HD
ENDBRANCH  48  54
BRANCH  49  56
HETATM   56  O   UNN     0     -28.830  -7.602  53.470  0.00  0.00    -0.390 OA
HETATM   57  H   UNN     0     -28.345  -7.324  52.689  0.00  0.00     0.210 HD
ENDBRANCH  49  56
BRANCH  50  58
HETATM   58  C   UNN     0     -27.877  -8.182  57.027  0.00  0.00     0.198 C 
BRANCH  58  59
HETATM   59  O   UNN     0     -28.855  -9.130  57.410  0.00  0.00    -0.398 OA
HETATM   60  H   UNN     0     -29.711  -8.860  57.069  0.00  0.00     0.209 HD
ENDBRANCH  58  59
ENDBRANCH  50  58
ENDBRANCH  45  46
ENDBRANCH  44  45
ENDBRANCH   3  44
BRANCH   4  61
HETATM   61  O   UNN     0     -26.207  -3.128  58.088  0.00  0.00    -0.390 OA
HETATM   62  H   UNN     0     -25.669  -2.654  57.450  0.00  0.00     0.210 HD
ENDBRANCH   4  61
BRANCH   2  63
HETATM   63  O   UNN     0     -24.591  -5.442  60.311  0.00  0.00    -0.348 OA
BRANCH  63  64
HETATM   64  C   UNN     0     -25.551  -6.015  61.174  0.00  0.00     0.292 C 
HETATM   65  C   UNN     0     -25.344  -7.513  61.245  0.00  0.00     0.204 C 
HETATM   66  C   UNN     0     -24.090  -7.873  62.010  0.00  0.00     0.183 C 
HETATM   67  C   UNN     0     -24.082  -7.155  63.342  0.00  0.00     0.178 C 
HETATM   68  C   UNN     0     -24.223  -5.660  63.115  0.00  0.00     0.152 C 
HETATM   69  C   UNN     0     -24.249  -4.886  64.434  0.00  0.00     0.042 C 
HETATM   70  O   UNN     0     -25.417  -5.381  62.431  0.00  0.00    -0.351 OA
BRANCH  65  71
HETATM   71  O   UNN     0     -26.437  -8.119  61.894  0.00  0.00    -0.388 OA
HETATM   72  H   UNN     0     -27.232  -7.653  61.617  0.00  0.00     0.210 HD
ENDBRANCH  65  71
BRANCH  66  73
HETATM   73  O   UNN     0     -24.074  -9.258  62.245  0.00  0.00    -0.390 OA
HETATM   74  H   UNN     0     -23.568  -9.676  61.542  0.00  0.00     0.210 HD
ENDBRANCH  66  73
BRANCH  67  75
HETATM   75  O   UNN     0     -22.870  -7.459  63.988  0.00  0.00    -0.390 OA
HETATM   76  H   UNN     0     -22.388  -6.652  64.182  0.00  0.00     0.210 HD
ENDBRANCH  67  75
ENDBRANCH  63  64
ENDBRANCH   2  63
TORSDOF 20
ENDMDL
MODEL 8
REMARK VINA RESULT:      -7.4     27.541     31.348
REMARK  20 active torsions:
REMARK  status: ('A' for Active; 'I' for Inactive)
REMARK    1  A    between atoms: O_1  and  C_32 
REMARK    2  A    between atoms: O_1  and  C_29 
REMARK    3  A    between atoms: O_2  and  C_33 
REMARK    4  A    between atoms: O_2  and  C_31 
REMARK    5  A    between atoms: O_3  and  C_35 
REMARK    6  A    between atoms: O_4  and  C_36 
REMARK    7  A    between atoms: O_6  and  C_40 
REMARK    8  A    between atoms: O_7  and  C_49 
REMARK    9  A    between atoms: O_8  and  C_56 
REMARK   10  A    between atoms: O_8  and  C_37 
REMARK   11  A    between atoms: C_20  and  O_68 
REMARK   12  A    between atoms: C_20  and  C_23 
REMARK   13  A    between atoms: C_22  and  O_69 
REMARK   14  A    between atoms: C_24  and  O_70 
REMARK   15  A    between atoms: C_25  and  O_71 
REMARK   16  A    between atoms: C_26  and  O_72 
REMARK   17  A    between atoms: C_28  and  O_73 
REMARK   18  A    between atoms: C_30  and  O_74 
REMARK   19  A    between atoms: C_32  and  C_34 
REMARK   20  A    between atoms: C_40  and  C_55 
ROOT
HETATM    1  O   UNN     0     -37.268  20.974  46.415  0.00  0.00    -0.348 OA
HETATM    2  C   UNN     0     -35.333  19.805  45.468  0.00  0.00     0.187 C 
HETATM    3  C   UNN     0     -36.592  20.639  45.231  0.00  0.00     0.180 C 
HETATM    4  C   UNN     0     -35.605  18.611  46.370  0.00  0.00     0.183 C 
HETATM    5  C   UNN     0     -36.358  19.037  47.613  0.00  0.00     0.204 C 
HETATM    6  C   UNN     0     -37.548  19.925  47.316  0.00  0.00     0.292 C 
ENDROOT
BRANCH   6   7
HETATM    7  O   UNN     0     -38.626  19.170  46.802  0.00  0.00    -0.352 OA
BRANCH   7   8
HETATM    8  C   UNN     0     -39.137  18.177  47.651  0.00  0.00     0.133 C 
HETATM    9  C   UNN     0     -39.902  18.783  48.828  0.00  0.00     0.034 C 
HETATM   10  C   UNN     0     -40.491  17.697  49.743  0.00  0.00     0.012 C 
HETATM   11  C   UNN     0     -41.412  16.674  49.019  0.00  0.00    -0.032 C 
HETATM   12  C   UNN     0     -42.735  17.397  48.683  0.00  0.00     0.016 C 
HETATM   13  C   UNN     0     -40.623  16.140  47.785  0.00  0.00     0.005 C 
HETATM   14  C   UNN     0     -41.678  15.454  49.962  0.00  0.00     0.026 C 
HETATM   15  C   UNN     0     -41.362  14.967  47.109  0.00  0.00     0.007 C 
HETATM   16  C   UNN     0     -40.009  17.201  46.820  0.00  0.00    -0.017 C 
HETATM   17  C   UNN     0     -41.604  13.797  48.079  0.00  0.00     0.011 C 
HETATM   18  C   UNN     0     -42.365  14.198  49.360  0.00  0.00    -0.025 C 
HETATM   19  C   UNN     0     -43.844  14.475  48.971  0.00  0.00     0.017 C 
HETATM   20  C   UNN     0     -42.336  13.075  50.464  0.00  0.00    -0.006 C 
HETATM   21  C   UNN     0     -40.929  12.842  51.099  0.00  0.00     0.021 C 
HETATM   22  C   UNN     0     -42.759  11.696  49.912  0.00  0.00     0.047 C 
HETATM   23  C   UNN     0     -43.195  13.550  51.638  0.00  0.00    -0.046 C 
HETATM   24  C   UNN     0     -43.165  10.715  51.006  0.00  0.00     0.134 C 
HETATM   25  C   UNN     0     -44.304  11.261  51.881  0.00  0.00     0.031 C 
HETATM   26  C   UNN     0     -44.449  10.382  53.152  0.00  0.00     0.020 C 
HETATM   27  C   UNN     0     -44.008  12.704  52.311  0.00  0.00    -0.059 C 
HETATM   28  C   UNN     0     -43.586  10.914  54.306  0.00  0.00     0.010 C 
HETATM   29  C   UNN     0     -44.059  12.312  54.769  0.00  0.00    -0.044 C 
HETATM   30  C   UNN     0     -42.842  13.125  55.261  0.00  0.00     0.015 C 
HETATM   31  C   UNN     0     -45.061  12.181  55.936  0.00  0.00     0.015 C 
HETATM   32  C   UNN     0     -44.745  13.048  53.595  0.00  0.00     0.044 C 
HETATM   33  C   UNN     0     -43.044  14.844  51.995  0.00  0.00     0.004 C 
HETATM   34  C   UNN     0     -42.344  15.747  51.286  0.00  0.00    -0.020 C 
HETATM   35  C   UNN     0     -41.066  17.953  45.984  0.00  0.00     0.018 C 
HETATM   36  C   UNN     0     -39.071  16.505  45.794  0.00  0.00     0.018 C 
BRANCH  24  37
HETATM   37  O   UNN     0     -43.534   9.502  50.393  0.00  0.00    -0.394 OA
HETATM   38  H   UNN     0     -44.460   9.319  50.562  0.00  0.00     0.210 HD
ENDBRANCH  24  37
BRANCH  25  39
HETATM   39  C   UNN     0     -45.639  11.263  51.104  0.00  0.00     0.180 C 
BRANCH  39  40
HETATM   40  O   UNN     0     -46.316  10.029  51.245  0.00  0.00    -0.400 OA
HETATM   41  H   UNN     0     -47.047  10.126  51.856  0.00  0.00     0.209 HD
ENDBRANCH  39  40
ENDBRANCH  25  39
ENDBRANCH   7   8
ENDBRANCH   6   7
BRANCH   5  42
HETATM   42  O   UNN     0     -35.479  19.710  48.486  0.00  0.00    -0.388 OA
HETATM   43  H   UNN     0     -34.657  19.916  48.036  0.00  0.00     0.210 HD
ENDBRANCH   5  42
BRANCH   3  44
HETATM   44  C   UNN     0     -37.506  20.083  44.141  0.00  0.00     0.205 C 
BRANCH  44  45
HETATM   45  O   UNN     0     -36.816  19.080  43.433  0.00  0.00    -0.356 OA
BRANCH  45  46
HETATM   46  C   UNN     0     -36.365  19.483  42.160  0.00  0.00     0.291 C 
HETATM   47  C   UNN     0     -34.948  19.011  41.925  0.00  0.00     0.204 C 
HETATM   48  C   UNN     0     -34.840  17.533  41.607  0.00  0.00     0.183 C 
HETATM   49  C   UNN     0     -35.895  17.102  40.605  0.00  0.00     0.180 C 
HETATM   50  C   UNN     0     -37.279  17.657  40.906  0.00  0.00     0.179 C 
HETATM   51  O   UNN     0     -37.271  19.033  41.177  0.00  0.00    -0.348 OA
BRANCH  47  52
HETATM   52  O   UNN     0     -34.367  19.768  40.888  0.00  0.00    -0.388 OA
HETATM   53  H   UNN     0     -34.974  19.819  40.145  0.00  0.00     0.210 HD
ENDBRANCH  47  52
BRANCH  48  54
HETATM   54  O   UNN     0     -34.986  16.792  42.795  0.00  0.00    -0.390 OA
HETATM   55  H   UNN     0     -34.210  16.243  42.932  0.00  0.00     0.210 HD
ENDBRANCH  48  54
BRANCH  49  56
HETATM   56  O   UNN     0     -35.504  17.518  39.316  0.00  0.00    -0.390 OA
HETATM   57  H   UNN     0     -35.920  18.360  39.116  0.00  0.00     0.210 HD
ENDBRANCH  49  56
BRANCH  50  58
HETATM   58  C   UNN     0     -38.078  16.858  41.930  0.00  0.00     0.198 C 
BRANCH  58  59
HETATM   59  O   UNN     0     -37.617  15.520  41.952  0.00  0.00    -0.398 OA
HETATM   60  H   UNN     0     -37.273  15.317  42.825  0.00  0.00     0.209 HD
ENDBRANCH  58  59
ENDBRANCH  50  58
ENDBRANCH  45  46
ENDBRANCH  44  45
ENDBRANCH   3  44
BRANCH   4  61
HETATM   61  O   UNN     0     -36.351  17.643  45.674  0.00  0.00    -0.390 OA
HETATM   62  H   UNN     0     -37.287  17.842  45.734  0.00  0.00     0.210 HD
ENDBRANCH   4  61
BRANCH   2  63
HETATM   63  O   UNN     0     -34.339  20.593  46.072  0.00  0.00    -0.348 OA
BRANCH  63  64
HETATM   64  C   UNN     0     -33.064  19.989  46.142  0.00  0.00     0.292 C 
HETATM   65  C   UNN     0     -32.647  19.515  44.766  0.00  0.00     0.204 C 
HETATM   66  C   UNN     0     -32.315  20.670  43.849  0.00  0.00     0.183 C 
HETATM   67  C   UNN     0     -31.338  21.600  44.535  0.00  0.00     0.178 C 
HETATM   68  C   UNN     0     -31.916  22.053  45.865  0.00  0.00     0.152 C 
HETATM   69  C   UNN     0     -30.955  22.976  46.616  0.00  0.00     0.042 C 
HETATM   70  O   UNN     0     -32.176  20.945  46.687  0.00  0.00    -0.351 OA
BRANCH  65  71
HETATM   71  O   UNN     0     -31.506  18.696  44.864  0.00  0.00    -0.388 OA
HETATM   72  H   UNN     0     -31.652  17.928  44.304  0.00  0.00     0.210 HD
ENDBRANCH  65  71
BRANCH  66  73
HETATM   73  O   UNN     0     -31.716  20.173  42.678  0.00  0.00    -0.390 OA
HETATM   74  H   UNN     0     -32.107  19.317  42.481  0.00  0.00     0.210 HD
ENDBRANCH  66  73
BRANCH  67  75
HETATM   75  O   UNN     0     -31.111  22.694  43.681  0.00  0.00    -0.390 OA
HETATM   76  H   UNN     0     -31.945  23.109  43.448  0.00  0.00     0.210 HD
ENDBRANCH  67  75
ENDBRANCH  63  64
ENDBRANCH   2  63
TORSDOF 20
ENDMDL
MODEL 9
REMARK VINA RESULT:      -7.4     27.048     31.313
REMARK  20 active torsions:
REMARK  status: ('A' for Active; 'I' for Inactive)
REMARK    1  A    between atoms: O_1  and  C_32 
REMARK    2  A    between atoms: O_1  and  C_29 
REMARK    3  A    between atoms: O_2  and  C_33 
REMARK    4  A    between atoms: O_2  and  C_31 
REMARK    5  A    between atoms: O_3  and  C_35 
REMARK    6  A    between atoms: O_4  and  C_36 
REMARK    7  A    between atoms: O_6  and  C_40 
REMARK    8  A    between atoms: O_7  and  C_49 
REMARK    9  A    between atoms: O_8  and  C_56 
REMARK   10  A    between atoms: O_8  and  C_37 
REMARK   11  A    between atoms: C_20  and  O_68 
REMARK   12  A    between atoms: C_20  and  C_23 
REMARK   13  A    between atoms: C_22  and  O_69 
REMARK   14  A    between atoms: C_24  and  O_70 
REMARK   15  A    between atoms: C_25  and  O_71 
REMARK   16  A    between atoms: C_26  and  O_72 
REMARK   17  A    between atoms: C_28  and  O_73 
REMARK   18  A    between atoms: C_30  and  O_74 
REMARK   19  A    between atoms: C_32  and  C_34 
REMARK   20  A    between atoms: C_40  and  C_55 
ROOT
HETATM    1  O   UNN     0     -37.757  20.849  46.059  0.00  0.00    -0.348 OA
HETATM    2  C   UNN     0     -35.646  19.943  45.201  0.00  0.00     0.187 C 
HETATM    3  C   UNN     0     -37.014  20.558  44.904  0.00  0.00     0.180 C 
HETATM    4  C   UNN     0     -35.750  18.773  46.167  0.00  0.00     0.183 C 
HETATM    5  C   UNN     0     -36.584  19.146  47.376  0.00  0.00     0.204 C 
HETATM    6  C   UNN     0     -37.890  19.821  47.015  0.00  0.00     0.292 C 
ENDROOT
BRANCH   6   7
HETATM    7  O   UNN     0     -38.828  18.882  46.534  0.00  0.00    -0.352 OA
BRANCH   7   8
HETATM    8  C   UNN     0     -39.308  17.958  47.474  0.00  0.00     0.133 C 
HETATM    9  C   UNN     0     -40.301  18.603  48.440  0.00  0.00     0.034 C 
HETATM   10  C   UNN     0     -40.852  17.586  49.453  0.00  0.00     0.012 C 
HETATM   11  C   UNN     0     -41.516  16.334  48.812  0.00  0.00    -0.032 C 
HETATM   12  C   UNN     0     -42.868  16.779  48.214  0.00  0.00     0.016 C 
HETATM   13  C   UNN     0     -40.500  15.754  47.781  0.00  0.00     0.005 C 
HETATM   14  C   UNN     0     -41.735  15.240  49.910  0.00  0.00     0.026 C 
HETATM   15  C   UNN     0     -40.970  14.391  47.233  0.00  0.00     0.007 C 
HETATM   16  C   UNN     0     -39.915  16.743  46.726  0.00  0.00    -0.017 C 
HETATM   17  C   UNN     0     -41.177  13.355  48.352  0.00  0.00     0.011 C 
HETATM   18  C   UNN     0     -42.153  13.817  49.455  0.00  0.00    -0.025 C 
HETATM   19  C   UNN     0     -43.590  13.794  48.862  0.00  0.00     0.017 C 
HETATM   20  C   UNN     0     -42.119  12.890  50.727  0.00  0.00    -0.006 C 
HETATM   21  C   UNN     0     -40.792  12.980  51.545  0.00  0.00     0.021 C 
HETATM   22  C   UNN     0     -42.268  11.394  50.371  0.00  0.00     0.047 C 
HETATM   23  C   UNN     0     -43.186  13.392  51.701  0.00  0.00    -0.046 C 
HETATM   24  C   UNN     0     -42.678  10.535  51.561  0.00  0.00     0.134 C 
HETATM   25  C   UNN     0     -43.990  11.018  52.199  0.00  0.00     0.031 C 
HETATM   26  C   UNN     0     -44.182  10.326  53.575  0.00  0.00     0.020 C 
HETATM   27  C   UNN     0     -43.958  12.536  52.412  0.00  0.00    -0.059 C 
HETATM   28  C   UNN     0     -43.566  11.153  54.713  0.00  0.00     0.010 C 
HETATM   29  C   UNN     0     -44.288  12.512  54.879  0.00  0.00    -0.044 C 
HETATM   30  C   UNN     0     -43.273  13.571  55.361  0.00  0.00     0.015 C 
HETATM   31  C   UNN     0     -45.410  12.399  55.932  0.00  0.00     0.015 C 
HETATM   32  C   UNN     0     -44.903  12.947  53.529  0.00  0.00     0.044 C 
HETATM   33  C   UNN     0     -43.267  14.731  51.852  0.00  0.00     0.004 C 
HETATM   34  C   UNN     0     -42.609  15.618  51.084  0.00  0.00    -0.020 C 
HETATM   35  C   UNN     0     -40.943  17.185  45.664  0.00  0.00     0.018 C 
HETATM   36  C   UNN     0     -38.758  16.059  45.943  0.00  0.00     0.018 C 
BRANCH  24  37
HETATM   37  O   UNN     0     -42.789   9.201  51.123  0.00  0.00    -0.394 OA
HETATM   38  H   UNN     0     -43.589   8.807  51.474  0.00  0.00     0.210 HD
ENDBRANCH  24  37
BRANCH  25  39
HETATM   39  C   UNN     0     -45.194  10.692  51.289  0.00  0.00     0.180 C 
BRANCH  39  40
HETATM   40  O   UNN     0     -45.628   9.358  51.471  0.00  0.00    -0.400 OA
HETATM   41  H   UNN     0     -46.407   9.192  50.938  0.00  0.00     0.209 HD
ENDBRANCH  39  40
ENDBRANCH  25  39
ENDBRANCH   7   8
ENDBRANCH   6   7
BRANCH   5  42
HETATM   42  O   UNN     0     -35.835  19.992  48.219  0.00  0.00    -0.388 OA
HETATM   43  H   UNN     0     -35.926  20.905  47.937  0.00  0.00     0.210 HD
ENDBRANCH   5  42
BRANCH   3  44
HETATM   44  C   UNN     0     -37.810  19.809  43.837  0.00  0.00     0.205 C 
BRANCH  44  45
HETATM   45  O   UNN     0     -36.916  19.274  42.891  0.00  0.00    -0.356 OA
BRANCH  45  46
HETATM   46  C   UNN     0     -37.256  17.980  42.446  0.00  0.00     0.291 C 
HETATM   47  C   UNN     0     -37.546  17.989  40.962  0.00  0.00     0.204 C 
HETATM   48  C   UNN     0     -36.303  18.069  40.097  0.00  0.00     0.183 C 
HETATM   49  C   UNN     0     -35.220  17.129  40.592  0.00  0.00     0.180 C 
HETATM   50  C   UNN     0     -35.029  17.165  42.100  0.00  0.00     0.179 C 
HETATM   51  O   UNN     0     -36.237  17.076  42.808  0.00  0.00    -0.348 OA
BRANCH  47  52
HETATM   52  O   UNN     0     -38.292  16.843  40.623  0.00  0.00    -0.388 OA
HETATM   53  H   UNN     0     -37.710  16.176  40.250  0.00  0.00     0.210 HD
ENDBRANCH  47  52
BRANCH  48  54
HETATM   54  O   UNN     0     -35.820  19.391  40.101  0.00  0.00    -0.390 OA
HETATM   55  H   UNN     0     -36.543  20.001  39.942  0.00  0.00     0.210 HD
ENDBRANCH  48  54
BRANCH  49  56
HETATM   56  O   UNN     0     -35.538  15.812  40.201  0.00  0.00    -0.390 OA
HETATM   57  H   UNN     0     -36.253  15.838  39.560  0.00  0.00     0.210 HD
ENDBRANCH  49  56
BRANCH  50  58
HETATM   58  C   UNN     0     -34.133  18.292  42.603  0.00  0.00     0.198 C 
BRANCH  58  59
HETATM   59  O   UNN     0     -33.346  17.826  43.683  0.00  0.00    -0.398 OA
HETATM   60  H   UNN     0     -33.904  17.708  44.455  0.00  0.00     0.209 HD
ENDBRANCH  58  59
ENDBRANCH  50  58
ENDBRANCH  45  46
ENDBRANCH  44  45
ENDBRANCH   3  44
BRANCH   4  61
HETATM   61  O   UNN     0     -36.324  17.665  45.520  0.00  0.00    -0.390 OA
HETATM   62  H   UNN     0     -35.744  17.355  44.821  0.00  0.00     0.210 HD
ENDBRANCH   4  61
BRANCH   2  63
HETATM   63  O   UNN     0     -34.797  20.907  45.770  0.00  0.00    -0.348 OA
BRANCH  63  64
HETATM   64  C   UNN     0     -33.971  21.587  44.849  0.00  0.00     0.292 C 
HETATM   65  C   UNN     0     -33.638  22.965  45.381  0.00  0.00     0.204 C 
HETATM   66  C   UNN     0     -32.687  22.902  46.554  0.00  0.00     0.183 C 
HETATM   67  C   UNN     0     -31.494  22.042  46.197  0.00  0.00     0.178 C 
HETATM   68  C   UNN     0     -31.971  20.670  45.752  0.00  0.00     0.152 C 
HETATM   69  C   UNN     0     -30.804  19.766  45.352  0.00  0.00     0.042 C 
HETATM   70  O   UNN     0     -32.824  20.786  44.643  0.00  0.00    -0.351 OA
BRANCH  65  71
HETATM   71  O   UNN     0     -33.032  23.736  44.371  0.00  0.00    -0.388 OA
HETATM   72  H   UNN     0     -33.196  24.662  44.576  0.00  0.00     0.210 HD
ENDBRANCH  65  71
BRANCH  66  73
HETATM   73  O   UNN     0     -32.234  24.199  46.852  0.00  0.00    -0.390 OA
HETATM   74  H   UNN     0     -32.054  24.244  47.795  0.00  0.00     0.210 HD
ENDBRANCH  66  73
BRANCH  67  75
HETATM   75  O   UNN     0     -30.673  21.951  47.335  0.00  0.00    -0.390 OA
HETATM   76  H   UNN     0     -29.748  21.963  47.076  0.00  0.00     0.210 HD
ENDBRANCH  67  75
ENDBRANCH  63  64
ENDBRANCH   2  63
TORSDOF 20
ENDMDL
